
     RDKit          2D

 21 24  0  0  1  0  0  0  0  0999 V2000
    5.7157    7.0645    0.0000 C   0  0  0  0  0  0  0  0  0  0  0  0
    5.7157    6.2387    0.0000 C   0  0  0  0  0  0  0  0  0  0  0  0
    6.4314    5.8258    0.0000 C   0  0  0  0  0  0  0  0  0  0  0  0
    7.1471    6.2387    0.0000 C   0  0  0  0  0  0  0  0  0  0  0  0
    7.1471    7.0645    0.0000 C   0  0  0  0  0  0  0  0  0  0  0  0
    6.4314    7.4774    0.0000 C   0  0  0  0  0  0  0  0  0  0  0  0
    7.8628    5.8258    0.0000 C   0  0  0  0  0  0  0  0  0  0  0  0
    8.5784    6.2387    0.0000 C   0  0  0  0  0  0  0  0  0  0  0  0
    8.5784    7.0645    0.0000 C   0  0  0  0  0  0  0  0  0  0  0  0
    7.8628    7.4774    0.0000 C   0  0  0  0  0  0  0  0  0  0  0  0
    9.2941    7.4774    0.0000 C   0  0  0  0  0  0  0  0  0  0  0  0
    9.2941    8.3032    0.0000 C   0  0  0  0  0  0  0  0  0  0  0  0
    8.5784    8.7161    0.0000 C   0  0  0  0  0  0  0  0  0  0  0  0
    7.8628    8.3032    0.0000 C   0  0  0  0  0  0  0  0  0  0  0  0
    5.0000    5.8258    0.0000 O   0  0  0  0  0  0  0  0  0  0  0  0
    6.4314    5.0000    0.0000 C   0  0  0  0  0  0  0  0  0  0  0  0
    9.2941    9.1014    0.0000 C   0  0  0  0  0  0  0  0  0  0  0  0
    7.1471    5.4129    0.0000 C   0  0  0  0  0  0  0  0  0  0  0  0
    7.8628    6.6516    0.0000 C   0  0  0  0  0  0  0  0  0  0  0  0
   10.0098    8.7161    0.0000 O   0  0  0  0  0  0  0  0  0  0  0  0
    5.7157    5.4129    0.0000 O   0  0  0  0  0  0  0  0  0  0  0  0
  1  2  1  0
  1  6  2  0
  2  3  1  0
  2 15  2  0
  3  4  1  0
  3 16  1  6
  3 21  1  0
  4  5  1  0
  4  7  1  0
  4 18  1  1
  5  6  1  6
  5 10  1  0
  7  8  1  0
  9  8  1  6
  9 10  1  0
  9 11  1  0
 10 14  1  0
 10 19  1  6
 11 12  1  0
 12 13  1  0
 12 17  1  1
 12 20  1  0
 13 14  1  0
 16 21  1  0
M  END
>  <COMPOUND_ID>  (1) 
CMNPD28383

>  <MOLECULAR_FORMULA>  (1) 
C18H26O3

>  <MOLECULAR_WEIGHT>  (1) 
290.4029999999999

>  <MOLECULAR_MASS>  (1) 
290.18819469199997

>  <ALOGP>  (1) 
2.8680000000000017

>  <ROTATABLE_BONDS>  (1) 
0

>  <HBA>  (1) 
3

>  <HBD>  (1) 
1

>  <POLAR_SURFACE_AREA>  (1) 
49.83

>  <AROMATIC_RINGS>  (1) 
0

>  <HEAVY_ATOMS>  (1) 
21

>  <QED_WEIGHTED>  (1) 
0.6979214642104427

>  <BLOOD_BRAIN_BARRIER_PENETRATION>  (1) 
-0.188

>  <BLOOD_BRAIN_BARRIER_PENETRATION_LEVEL>  (1) 
2

>  <HUMAN_INTESTINAL_ABSORPTION_LEVEL>  (1) 
0

>  <AQUEOUS_SOLUBILITY>  (1) 
-3.958

>  <AQUEOUS_SOLUBILITY_LEVEL>  (1) 
3

>  <CYP2D6_BINDING_MODEL>  (1) 
false

>  <HEPATOTOXICITY_MODEL>  (1) 
true

>  <PLASMA_PROTEIN_BINDING_MODEL>  (1) 
true

>  <SMILES>  (1) 
C1=C[C@]([H])([C@@](C)(CC[C@@](O)(C)C2)[C@@]2([H])CC3)[C@@]3(C)[C@@]4(OC4)C1=O

>  <STANDARD_INCHI>  (1) 
InChI=1S/C18H26O3/c1-15(20)8-9-16(2)12(10-15)6-7-17(3)13(16)4-5-14(19)18(17)11-21-18/h4-5,12-13,20H,6-11H2,1-3H3/t12-,13+,15-,16-,17-,18-/m0/s1

>  <STANDARD_INCHI_KEY>  (1) 
WMLYONJBMQORAI-PYCKYVDESA-N

$$$$

     RDKit          2D

 18 20  0  0  1  0  0  0  0  0999 V2000
    7.0913    5.3852    0.0000 C   0  0  0  0  0  0  0  0  0  0  0  0
    7.7242    5.0275    0.0000 C   0  0  0  0  0  0  0  0  0  0  0  0
    8.3846    5.3852    0.0000 C   0  0  0  0  0  0  0  0  0  0  0  0
    7.0363    6.2107    0.0000 C   0  0  0  0  0  0  0  0  0  0  0  0
    6.3483    5.7980    0.0000 C   0  0  0  0  0  0  0  0  0  0  0  0
    6.7611    5.1101    0.0000 C   0  0  0  0  0  0  0  0  0  0  0  0
    5.9631    5.1101    0.0000 C   0  0  0  0  0  0  0  0  0  0  0  0
    5.6604    6.2107    0.0000 C   0  0  0  0  0  0  0  0  0  0  0  0
    5.0000    5.7430    0.0000 Br  0  0  0  0  0  0  0  0  0  0  0  0
    5.7154    7.0087    0.0000 C   0  0  0  0  0  0  0  0  0  0  0  0
    6.4584    7.3389    0.0000 C   0  0  0  0  0  0  0  0  0  0  0  0
    8.4121    7.0087    0.0000 O   0  0  0  0  0  0  0  0  0  0  0  0
    8.4121    6.1832    0.0000 C   0  0  0  0  0  0  0  0  0  0  0  0
    7.7242    6.5685    0.0000 C   0  0  0  0  0  0  0  0  0  0  0  0
    9.1000    5.0000    0.0000 C   0  0  0  0  0  0  0  0  0  0  0  0
    7.5040    7.3389    0.0000 O   0  0  0  0  0  0  0  0  0  0  0  0
    7.0638    7.7242    0.0000 C   0  0  0  0  0  0  0  0  0  0  0  0
    7.0363    7.0087    0.0000 C   0  0  0  0  0  0  0  0  0  0  0  0
  1  2  1  0
  4  1  1  1
  2  3  2  0
  3 13  1  0
  3 15  1  0
  4  5  1  0
  4 18  1  0
  5  6  1  0
  5  7  1  0
  5  8  1  0
  8  9  1  0
  8 10  2  0
 10 11  1  0
 11 18  1  0
 14 13  1  1
  4 14  1  0
 14 16  1  0
 11 16  1  6
 18 17  1  1
 18 12  1  0
M  END
>  <COMPOUND_ID>  (2) 
CMNPD10253

>  <MOLECULAR_FORMULA>  (2) 
C15H21BrO2

>  <MOLECULAR_WEIGHT>  (2) 
313.23500000000007

>  <MOLECULAR_MASS>  (2) 
312.072492012

>  <ALOGP>  (2) 
3.5499000000000027

>  <ROTATABLE_BONDS>  (2) 
0

>  <HBA>  (2) 
2

>  <HBD>  (2) 
1

>  <POLAR_SURFACE_AREA>  (2) 
29.46

>  <AROMATIC_RINGS>  (2) 
0

>  <HEAVY_ATOMS>  (2) 
18

>  <QED_WEIGHTED>  (2) 
0.6931271774747717

>  <BLOOD_BRAIN_BARRIER_PENETRATION>  (2) 
0.178

>  <BLOOD_BRAIN_BARRIER_PENETRATION_LEVEL>  (2) 
1

>  <HUMAN_INTESTINAL_ABSORPTION_LEVEL>  (2) 
0

>  <AQUEOUS_SOLUBILITY>  (2) 
-3.844

>  <AQUEOUS_SOLUBILITY_LEVEL>  (2) 
3

>  <CYP2D6_BINDING_MODEL>  (2) 
false

>  <HEPATOTOXICITY_MODEL>  (2) 
true

>  <PLASMA_PROTEIN_BINDING_MODEL>  (2) 
true

>  <SMILES>  (2) 
C1[C@]2([C@@H]3CC(C)=C1)[C@](O)(C)[C@@H](O3)C=C(Br)C2(C)C

>  <STANDARD_INCHI>  (2) 
InChI=1S/C15H21BrO2/c1-9-5-6-15-12(7-9)18-11(14(15,4)17)8-10(16)13(15,2)3/h5,8,11-12,17H,6-7H2,1-4H3/t11-,12-,14-,15+/m0/s1

>  <STANDARD_INCHI_KEY>  (2) 
MLMXKHPTSSZDLM-NZBPQXDJSA-N

$$$$

     RDKit          2D

 25 26  0  0  0  0  0  0  0  0999 V2000
    6.9779    5.7692    0.0000 C   0  0  0  0  0  0  0  0  0  0  0  0
    6.3186    5.7692    0.0000 C   0  0  0  0  0  0  0  0  0  0  0  0
    5.6593    5.7692    0.0000 C   0  0  0  0  0  0  0  0  0  0  0  0
    7.3351    5.0275    0.0000 C   0  0  0  0  0  0  0  0  0  0  0  0
    5.0000    5.8241    0.0000 C   0  0  0  0  0  0  0  0  0  0  0  0
    8.1592    5.0549    0.0000 C   0  0  0  0  0  0  0  0  0  0  0  0
    8.6262    5.7143    0.0000 C   0  0  0  0  0  0  0  0  0  0  0  0
    9.0383    5.0275    0.0000 C   0  0  0  0  0  0  0  0  0  0  0  0
    9.8350    5.0000    0.0000 C   0  0  0  0  0  0  0  0  0  0  0  0
   10.2470    5.7143    0.0000 C   0  0  0  0  0  0  0  0  0  0  0  0
   10.2745    6.5384    0.0000 C   0  0  0  0  0  0  0  0  0  0  0  0
    9.4229    6.9505    0.0000 C   0  0  0  0  0  0  0  0  0  0  0  0
    9.4229    7.7471    0.0000 C   0  0  0  0  0  0  0  0  0  0  0  0
   10.1371    8.1592    0.0000 C   0  0  0  0  0  0  0  0  0  0  0  0
   10.9888    6.9505    0.0000 Br  0  0  0  0  0  0  0  0  0  0  0  0
    6.3461    6.9779    0.0000 C   0  0  0  0  0  0  0  0  0  0  0  0
    5.0549    6.5933    0.0000 C   0  0  0  0  0  0  0  0  0  0  0  0
    6.3736    7.8021    0.0000 C   0  0  0  0  0  0  0  0  0  0  0  0
    7.0604    8.1867    0.0000 C   0  0  0  0  0  0  0  0  0  0  0  0
    7.0604    8.9559    0.0000 O   0  0  0  0  0  0  0  0  0  0  0  0
    7.7746    7.7746    0.0000 C   0  0  0  0  0  0  0  0  0  0  0  0
    8.4614    8.1867    0.0000 Br  0  0  0  0  0  0  0  0  0  0  0  0
    7.7746    6.9779    0.0000 C   0  0  0  0  0  0  0  0  0  0  0  0
    8.5987    6.5659    0.0000 O   0  0  0  0  0  0  0  0  0  0  0  0
    7.0604    6.5933    0.0000 O   0  0  0  0  0  0  0  0  0  0  0  0
  1  2  1  0
  1  4  1  0
  2  3  3  0
  3  5  1  0
  4  6  2  0
  5 17  1  0
  6  7  1  0
  7  8  1  0
  8  9  2  0
  9 10  1  0
 10 11  1  0
 11 12  1  0
 11 15  1  0
 12 24  1  0
 12 13  1  0
 13 14  1  0
 16 17  1  0
 16 18  2  0
 16 25  1  0
 18 19  1  0
 19 20  2  0
 19 21  1  0
 21 22  1  0
 21 23  2  0
 23 24  1  0
 23 25  1  0
M  END
>  <COMPOUND_ID>  (3) 
CMNPD4199

>  <MOLECULAR_FORMULA>  (3) 
C20H22Br2O3

>  <MOLECULAR_WEIGHT>  (3) 
470.20100000000014

>  <MOLECULAR_MASS>  (3) 
467.9935687639999

>  <ALOGP>  (3) 
5.555500000000005

>  <ROTATABLE_BONDS>  (3) 
1

>  <HBA>  (3) 
3

>  <HBD>  (3) 
0

>  <POLAR_SURFACE_AREA>  (3) 
39.44

>  <AROMATIC_RINGS>  (3) 
1

>  <HEAVY_ATOMS>  (3) 
25

>  <QED_WEIGHTED>  (3) 
0.306943477627079

>  <BLOOD_BRAIN_BARRIER_PENETRATION>  (3) 
1.2

>  <BLOOD_BRAIN_BARRIER_PENETRATION_LEVEL>  (3) 
0

>  <HUMAN_INTESTINAL_ABSORPTION_LEVEL>  (3) 
1

>  <AQUEOUS_SOLUBILITY>  (3) 
-7.123

>  <AQUEOUS_SOLUBILITY_LEVEL>  (3) 
1

>  <CYP2D6_BINDING_MODEL>  (3) 
false

>  <HEPATOTOXICITY_MODEL>  (3) 
false

>  <PLASMA_PROTEIN_BINDING_MODEL>  (3) 
true

>  <SMILES>  (3) 
C1\C=C/C\C=C/CC(Br)C(CC)OC(OC(=C2)CCC#C1)=C(Br)C2=O

>  <STANDARD_INCHI>  (3) 
InChI=1S/C20H22Br2O3/c1-2-18-16(21)13-11-9-7-5-3-4-6-8-10-12-15-14-17(23)19(22)20(24-15)25-18/h3,5,9,11,14,16,18H,2,4,7,10,12-13H2,1H3/b5-3-,11-9-

>  <STANDARD_INCHI_KEY>  (3) 
TXUVKVIZMJASCN-IVCPHRBRSA-N

$$$$

     RDKit          2D

 18 20  0  0  1  0  0  0  0  0999 V2000
    7.6973    5.3853    0.0000 C   0  0  0  0  0  0  0  0  0  0  0  0
    8.5230    5.3853    0.0000 C   0  0  0  0  0  0  0  0  0  0  0  0
    9.0460    6.0184    0.0000 C   0  0  0  0  0  0  0  0  0  0  0  0
    7.1744    6.0184    0.0000 C   0  0  0  0  0  0  0  0  0  0  0  0
    8.8533    6.8166    0.0000 C   0  0  0  0  0  0  0  0  0  0  0  0
    9.5689    7.2569    0.0000 C   0  0  0  0  0  0  0  0  0  0  0  0
   10.1744    6.7065    0.0000 O   0  0  0  0  0  0  0  0  0  0  0  0
    9.8717    5.9633    0.0000 C   0  0  0  0  0  0  0  0  0  0  0  0
    6.4037    5.7707    0.0000 C   0  0  0  0  0  0  0  0  0  0  0  0
    6.6239    5.0000    0.0000 C   0  0  0  0  0  0  0  0  0  0  0  0
    5.7982    6.3487    0.0000 C   0  0  0  0  0  0  0  0  0  0  0  0
    5.8257    5.1651    0.0000 C   0  0  0  0  0  0  0  0  0  0  0  0
    5.0000    6.1009    0.0000 Br  0  0  0  0  0  0  0  0  0  0  0  0
    5.9633    7.1468    0.0000 C   0  0  0  0  0  0  0  0  0  0  0  0
    6.7615    7.3946    0.0000 C   0  0  0  0  0  0  0  0  0  0  0  0
    7.3670    6.8166    0.0000 C   0  0  0  0  0  0  0  0  0  0  0  0
    7.4771    7.6423    0.0000 C   0  0  0  0  0  0  0  0  0  0  0  0
    8.1102    7.2019    0.0000 O   0  0  0  0  0  0  0  0  0  0  0  0
  1  2  1  0
  4  1  1  1
  2  3  2  0
  3  5  1  0
  3  8  1  0
  4  9  1  0
  4 16  1  0
  5 18  1  0
  5  6  1  1
  6  7  1  0
  7  8  1  0
  9 10  1  0
  9 11  1  0
  9 12  1  0
 11 13  1  1
 11 14  1  0
 14 15  1  0
 15 16  1  0
 16 17  1  1
 16 18  1  0
M  END
>  <COMPOUND_ID>  (4) 
CMNPD752

>  <MOLECULAR_FORMULA>  (4) 
C15H23BrO2

>  <MOLECULAR_WEIGHT>  (4) 
315.25100000000015

>  <MOLECULAR_MASS>  (4) 
314.088142076

>  <ALOGP>  (4) 
3.6903000000000024

>  <ROTATABLE_BONDS>  (4) 
0

>  <HBA>  (4) 
2

>  <HBD>  (4) 
0

>  <POLAR_SURFACE_AREA>  (4) 
18.46

>  <AROMATIC_RINGS>  (4) 
0

>  <HEAVY_ATOMS>  (4) 
18

>  <QED_WEIGHTED>  (4) 
0.5012777790351823

>  <BLOOD_BRAIN_BARRIER_PENETRATION>  (4) 
0.472

>  <BLOOD_BRAIN_BARRIER_PENETRATION_LEVEL>  (4) 
1

>  <HUMAN_INTESTINAL_ABSORPTION_LEVEL>  (4) 
0

>  <AQUEOUS_SOLUBILITY>  (4) 
-4.559

>  <AQUEOUS_SOLUBILITY_LEVEL>  (4) 
2

>  <CYP2D6_BINDING_MODEL>  (4) 
false

>  <HEPATOTOXICITY_MODEL>  (4) 
true

>  <PLASMA_PROTEIN_BINDING_MODEL>  (4) 
true

>  <SMILES>  (4) 
C1[C@@]2([C@](O[C@@]([H])(COC3)C3=C1)(C)CC[C@H](Br)C2(C)C)[H]

>  <STANDARD_INCHI>  (4) 
InChI=1S/C15H23BrO2/c1-14(2)12-5-4-10-8-17-9-11(10)18-15(12,3)7-6-13(14)16/h4,11-13H,5-9H2,1-3H3/t11-,12-,13-,15-/m0/s1

>  <STANDARD_INCHI_KEY>  (4) 
DDKCCVWYONKPQR-ABHRYQDASA-N

$$$$

     RDKit          2D

 20 22  0  0  1  0  0  0  0  0999 V2000
    5.7151    6.1277    0.0000 C   0  0  0  0  0  0  0  0  0  0  0  0
    6.4303    5.7151    0.0000 C   0  0  0  0  0  0  0  0  0  0  0  0
    6.8429    5.0000    0.0000 C   0  0  0  0  0  0  0  0  0  0  0  0
    5.0000    5.7151    0.0000 Br  0  0  0  0  0  0  0  0  0  0  0  0
    5.7151    6.9529    0.0000 C   0  0  0  0  0  0  0  0  0  0  0  0
    6.4303    7.3655    0.0000 C   0  0  0  0  0  0  0  0  0  0  0  0
    7.1454    6.9529    0.0000 C   0  0  0  0  0  0  0  0  0  0  0  0
    7.2280    7.7506    0.0000 C   0  0  0  0  0  0  0  0  0  0  0  0
    7.9156    7.2005    0.0000 O   0  0  0  0  0  0  0  0  0  0  0  0
    7.1454    6.1277    0.0000 C   0  0  0  0  0  0  0  0  0  0  0  0
    7.9156    5.8527    0.0000 C   0  0  0  0  0  0  0  0  0  0  0  0
    8.4107    6.5403    0.0000 C   0  0  0  0  0  0  0  0  0  0  0  0
    9.2359    6.5403    0.0000 C   0  0  0  0  0  0  0  0  0  0  0  0
    9.7310    7.2005    0.0000 C   0  0  0  0  0  0  0  0  0  0  0  0
   10.5011    6.9529    0.0000 O   0  0  0  0  0  0  0  0  0  0  0  0
    9.7310    5.8527    0.0000 C   0  0  0  0  0  0  0  0  0  0  0  0
   10.5011    6.1277    0.0000 C   0  0  0  0  0  0  0  0  0  0  0  0
   11.1888    5.6326    0.0000 O   0  0  0  0  0  0  0  0  0  0  0  0
    9.4559    5.0825    0.0000 O   0  0  0  0  0  0  0  0  0  0  0  0
    6.0177    5.0000    0.0000 C   0  0  0  0  0  0  0  0  0  0  0  0
  1  2  1  0
  1  4  1  1
  1  5  1  0
  2  3  1  0
  2 10  1  0
  2 20  1  0
  5  6  1  0
  6  7  1  0
  7  8  1  1
  7  9  1  0
  7 10  1  0
 12  9  1  0
 10 11  1  1
 11 12  1  0
 12 13  1  6
 13 14  1  0
 13 16  2  0
 14 15  1  0
 15 17  1  0
 16 17  1  0
 16 19  1  0
 17 18  2  0
M  END
>  <COMPOUND_ID>  (5) 
CMNPD18967

>  <MOLECULAR_FORMULA>  (5) 
C15H21BrO4

>  <MOLECULAR_WEIGHT>  (5) 
345.23300000000006

>  <MOLECULAR_MASS>  (5) 
344.06232125199995

>  <ALOGP>  (5) 
3.1026000000000007

>  <ROTATABLE_BONDS>  (5) 
1

>  <HBA>  (5) 
4

>  <HBD>  (5) 
1

>  <POLAR_SURFACE_AREA>  (5) 
55.760000000000005

>  <AROMATIC_RINGS>  (5) 
0

>  <HEAVY_ATOMS>  (5) 
20

>  <QED_WEIGHTED>  (5) 
0.5861257800757544

>  <BLOOD_BRAIN_BARRIER_PENETRATION>  (5) 
-0.323

>  <BLOOD_BRAIN_BARRIER_PENETRATION_LEVEL>  (5) 
2

>  <HUMAN_INTESTINAL_ABSORPTION_LEVEL>  (5) 
0

>  <AQUEOUS_SOLUBILITY>  (5) 
-3.741

>  <AQUEOUS_SOLUBILITY_LEVEL>  (5) 
3

>  <CYP2D6_BINDING_MODEL>  (5) 
false

>  <HEPATOTOXICITY_MODEL>  (5) 
true

>  <PLASMA_PROTEIN_BINDING_MODEL>  (5) 
false

>  <SMILES>  (5) 
[C@@H]1(CC[C@]2([C@@]([H])(C[C@@H](C3=C(O)C(=O)OC3)O2)C1(C)C)C)Br

>  <STANDARD_INCHI>  (5) 
InChI=1S/C15H21BrO4/c1-14(2)10-6-9(8-7-19-13(18)12(8)17)20-15(10,3)5-4-11(14)16/h9-11,17H,4-7H2,1-3H3/t9-,10-,11-,15-/m0/s1

>  <STANDARD_INCHI_KEY>  (5) 
VBNSOLWVHSCXLZ-VEABSNGSSA-N

$$$$

     RDKit          2D

 18 21  0  0  1  0  0  0  0  0999 V2000
    6.8516    5.9396    0.0000 C   0  0  0  0  0  0  0  0  0  0  0  0
    6.8516    5.2487    0.0000 C   0  0  0  0  0  0  0  0  0  0  0  0
    7.3767    5.3593    0.0000 C   0  0  0  0  0  0  0  0  0  0  0  0
    5.6080    6.1331    0.0000 C   0  0  0  0  0  0  0  0  0  0  0  0
    5.2211    5.5251    0.0000 C   0  0  0  0  0  0  0  0  0  0  0  0
    5.0000    6.5200    0.0000 C   0  0  0  0  0  0  0  0  0  0  0  0
    5.0000    7.2938    0.0000 C   0  0  0  0  0  0  0  0  0  0  0  0
    5.6356    7.6531    0.0000 C   0  0  0  0  0  0  0  0  0  0  0  0
    5.2211    8.4822    0.0000 Br  0  0  0  0  0  0  0  0  0  0  0  0
    6.0502    9.0902    0.0000 C   0  0  0  0  0  0  0  0  0  0  0  0
    6.6582    8.9520    0.0000 C   0  0  0  0  0  0  0  0  0  0  0  0
    6.7134    6.6858    0.0000 C   0  0  0  0  0  0  0  0  0  0  0  0
    6.7411    7.3491    0.0000 O   0  0  0  0  0  0  0  0  0  0  0  0
    7.3491    6.1884    0.0000 C   0  0  0  0  0  0  0  0  0  0  0  0
    7.8189    5.0000    0.0000 C   0  0  0  0  0  0  0  0  0  0  0  0
    6.1331    5.1382    0.0000 O   0  0  0  0  0  0  0  0  0  0  0  0
    6.2436    6.4371    0.0000 C   0  0  0  0  0  0  0  0  0  0  0  0
    6.1884    8.5098    0.0000 C   0  0  0  0  0  0  0  0  0  0  0  0
  2  1  1  0
 17  1  1  1
  2  3  1  0
  2 16  1  6
  3 14  1  0
  3 15  2  0
 17  4  1  0
 17 12  1  0
  4  5  1  1
  4  6  1  0
  4 16  1  0
  6  7  2  0
  7  8  1  0
  8  9  1  0
  8 18  1  0
  8 13  1  0
 18 10  1  0
 18 11  1  0
 12 13  1  0
 12 14  1  0
 17 18  1  0
M  END
>  <COMPOUND_ID>  (6) 
CMNPD2262

>  <MOLECULAR_FORMULA>  (6) 
C15H19BrO2

>  <MOLECULAR_WEIGHT>  (6) 
311.2190000000001

>  <MOLECULAR_MASS>  (6) 
310.056841948

>  <ALOGP>  (6) 
3.5663000000000027

>  <ROTATABLE_BONDS>  (6) 
0

>  <HBA>  (6) 
2

>  <HBD>  (6) 
0

>  <POLAR_SURFACE_AREA>  (6) 
18.46

>  <AROMATIC_RINGS>  (6) 
0

>  <HEAVY_ATOMS>  (6) 
18

>  <QED_WEIGHTED>  (6) 
0.5028872836086968

>  <BLOOD_BRAIN_BARRIER_PENETRATION>  (6) 
0.391

>  <BLOOD_BRAIN_BARRIER_PENETRATION_LEVEL>  (6) 
1

>  <HUMAN_INTESTINAL_ABSORPTION_LEVEL>  (6) 
0

>  <AQUEOUS_SOLUBILITY>  (6) 
-4.722

>  <AQUEOUS_SOLUBILITY_LEVEL>  (6) 
2

>  <CYP2D6_BINDING_MODEL>  (6) 
false

>  <HEPATOTOXICITY_MODEL>  (6) 
true

>  <PLASMA_PROTEIN_BINDING_MODEL>  (6) 
true

>  <SMILES>  (6) 
C([C@@](C(C)(C)C1(Br)C=C2)(C(CC3=C)O1)[C@@]2(O4)C)[C@H]34

>  <STANDARD_INCHI>  (6) 
InChI=1S/C15H19BrO2/c1-9-7-11-14-8-10(9)17-13(14,4)5-6-15(16,18-11)12(14,2)3/h5-6,10-11H,1,7-8H2,2-4H3/t10?,11?,13-,14+,15?/m1/s1

>  <STANDARD_INCHI_KEY>  (6) 
ZSNPGVLLJBDYLS-BURTUCIFSA-N

$$$$

     RDKit          2D

 19 20  0  0  1  0  0  0  0  0999 V2000
    5.7145    6.0992    0.0000 C   0  0  0  0  0  0  0  0  0  0  0  0
    5.0000    6.5114    0.0000 C   0  0  0  0  0  0  0  0  0  0  0  0
    6.4290    6.5389    0.0000 C   0  0  0  0  0  0  0  0  0  0  0  0
    6.4015    7.3084    0.0000 O   0  0  0  0  0  0  0  0  0  0  0  0
    9.5893    5.8519    0.0000 C   0  0  0  0  0  0  0  0  0  0  0  0
    9.3145    5.0000    0.0000 C   0  0  0  0  0  0  0  0  0  0  0  0
    8.5725    5.3572    0.0000 O   0  0  0  0  0  0  0  0  0  0  0  0
    9.2320    6.6214    0.0000 C   0  0  0  0  0  0  0  0  0  0  0  0
    8.5450    6.1817    0.0000 C   0  0  0  0  0  0  0  0  0  0  0  0
    7.8030    6.5664    0.0000 C   0  0  0  0  0  0  0  0  0  0  0  0
    7.1435    6.1267    0.0000 C   0  0  0  0  0  0  0  0  0  0  0  0
    7.1160    5.3023    0.0000 O   0  0  0  0  0  0  0  0  0  0  0  0
    9.9740    6.2641    0.0000 O   0  0  0  0  0  0  0  0  0  0  0  0
   10.0015    5.4397    0.0000 C   0  0  0  0  0  0  0  0  0  0  0  0
   10.7434    5.0550    0.0000 C   0  0  0  0  0  0  0  0  0  0  0  0
   12.1450    5.0824    0.0000 C   0  0  0  0  0  0  0  0  0  0  0  0
   11.4305    5.4947    0.0000 C   0  0  0  0  0  0  0  0  0  0  0  0
   12.8594    5.5221    0.0000 C   0  0  0  0  0  0  0  0  0  0  0  0
   13.5465    5.9343    0.0000 C   0  0  0  0  0  0  0  0  0  0  0  0
  1  2  2  0
  1  3  1  0
  3  4  1  0
  3 11  1  0
  6  5  1  0
  8  5  1  0
  6  7  1  6
  6 14  1  0
  7  9  1  0
  8  9  1  0
  8 13  1  6
  9 10  1  1
 10 11  1  0
 11 12  1  0
 13 14  1  0
 14 15  1  6
 15 17  1  0
 16 17  2  0
 16 18  1  0
 18 19  3  0
M  END
>  <COMPOUND_ID>  (7) 
CMNPD5960

>  <MOLECULAR_FORMULA>  (7) 
C15H20O4

>  <MOLECULAR_WEIGHT>  (7) 
264.32099999999997

>  <MOLECULAR_MASS>  (7) 
264.13615912

>  <ALOGP>  (7) 
0.7887

>  <ROTATABLE_BONDS>  (7) 
6

>  <HBA>  (7) 
4

>  <HBD>  (7) 
2

>  <POLAR_SURFACE_AREA>  (7) 
58.92

>  <AROMATIC_RINGS>  (7) 
0

>  <HEAVY_ATOMS>  (7) 
19

>  <QED_WEIGHTED>  (7) 
0.5498741980107765

>  <BLOOD_BRAIN_BARRIER_PENETRATION>  (7) 
-0.671

>  <BLOOD_BRAIN_BARRIER_PENETRATION_LEVEL>  (7) 
3

>  <HUMAN_INTESTINAL_ABSORPTION_LEVEL>  (7) 
0

>  <AQUEOUS_SOLUBILITY>  (7) 
-1.317

>  <AQUEOUS_SOLUBILITY_LEVEL>  (7) 
4

>  <CYP2D6_BINDING_MODEL>  (7) 
false

>  <HEPATOTOXICITY_MODEL>  (7) 
false

>  <PLASMA_PROTEIN_BINDING_MODEL>  (7) 
true

>  <SMILES>  (7) 
C(C(C(O)C[C@@H]([C@H](O[C@@H]1C\C=C\C#C)C[C@H]12)O2)O)=C

>  <STANDARD_INCHI>  (7) 
InChI=1S/C15H20O4/c1-3-5-6-7-12-14-9-15(18-12)13(19-14)8-11(17)10(16)4-2/h1,4-6,10-17H,2,7-9H2/b6-5+/t10?,11?,12-,13+,14-,15-/m1/s1

>  <STANDARD_INCHI_KEY>  (7) 
SUJOLGPDPVKMNS-INDSLRCGSA-N

$$$$

     RDKit          2D

 18 20  0  0  1  0  0  0  0  0999 V2000
    5.7983    7.0921    0.0000 C   0  0  0  0  0  0  0  0  0  0  0  0
    5.7983    6.2663    0.0000 C   0  0  0  0  0  0  0  0  0  0  0  0
    6.5140    5.8258    0.0000 C   0  0  0  0  0  0  0  0  0  0  0  0
    7.2297    6.2663    0.0000 C   0  0  0  0  0  0  0  0  0  0  0  0
    7.2297    7.0921    0.0000 C   0  0  0  0  0  0  0  0  0  0  0  0
    6.5140    7.4775    0.0000 C   0  0  0  0  0  0  0  0  0  0  0  0
    7.8628    5.7432    0.0000 C   0  0  0  0  0  0  0  0  0  0  0  0
    8.6887    5.9084    0.0000 C   0  0  0  0  0  0  0  0  0  0  0  0
    9.0465    6.6516    0.0000 C   0  0  0  0  0  0  0  0  0  0  0  0
    8.6887    7.4224    0.0000 C   0  0  0  0  0  0  0  0  0  0  0  0
    7.8628    7.5876    0.0000 O   0  0  0  0  0  0  0  0  0  0  0  0
    9.8448    6.7617    0.0000 C   0  0  0  0  0  0  0  0  0  0  0  0
   10.0100    7.5876    0.0000 O   0  0  0  0  0  0  0  0  0  0  0  0
    9.2667    7.9730    0.0000 C   0  0  0  0  0  0  0  0  0  0  0  0
    7.2297    7.9179    0.0000 C   0  0  0  0  0  0  0  0  0  0  0  0
    6.5140    5.0000    0.0000 C   0  0  0  0  0  0  0  0  0  0  0  0
    5.0000    6.4589    0.0000 C   0  0  0  0  0  0  0  0  0  0  0  0
    5.5781    5.4404    0.0000 O   0  0  0  0  0  0  0  0  0  0  0  0
  1  2  1  0
  1  6  1  0
  2  3  1  0
  2 17  1  1
  2 18  1  0
  3  4  1  0
  3 16  1  1
  4  5  1  0
  4  7  1  1
  5  6  1  0
  5 11  1  0
  5 15  1  1
  7  8  1  0
  8  9  2  0
  9 10  1  0
  9 12  1  0
 10 11  1  0
 10 14  1  1
 12 13  1  0
 13 14  1  0
M  END
>  <COMPOUND_ID>  (8) 
CMNPD29324

>  <MOLECULAR_FORMULA>  (8) 
C15H24O3

>  <MOLECULAR_WEIGHT>  (8) 
252.35399999999996

>  <MOLECULAR_MASS>  (8) 
252.172544628

>  <ALOGP>  (8) 
2.2877000000000005

>  <ROTATABLE_BONDS>  (8) 
0

>  <HBA>  (8) 
3

>  <HBD>  (8) 
1

>  <POLAR_SURFACE_AREA>  (8) 
38.69

>  <AROMATIC_RINGS>  (8) 
0

>  <HEAVY_ATOMS>  (8) 
18

>  <QED_WEIGHTED>  (8) 
0.6722600664084901

>  <BLOOD_BRAIN_BARRIER_PENETRATION>  (8) 
-0.295

>  <BLOOD_BRAIN_BARRIER_PENETRATION_LEVEL>  (8) 
2

>  <HUMAN_INTESTINAL_ABSORPTION_LEVEL>  (8) 
0

>  <AQUEOUS_SOLUBILITY>  (8) 
-2.775

>  <AQUEOUS_SOLUBILITY_LEVEL>  (8) 
3

>  <CYP2D6_BINDING_MODEL>  (8) 
false

>  <HEPATOTOXICITY_MODEL>  (8) 
false

>  <PLASMA_PROTEIN_BINDING_MODEL>  (8) 
false

>  <SMILES>  (8) 
C1C[C@](C)(O[C@@]([H])(COC2)C2=CC3)[C@]3([H])[C@@H](C)[C@@]1(O)C

>  <STANDARD_INCHI>  (8) 
InChI=1S/C15H24O3/c1-10-12-5-4-11-8-17-9-13(11)18-15(12,3)7-6-14(10,2)16/h4,10,12-13,16H,5-9H2,1-3H3/t10-,12+,13+,14-,15+/m1/s1

>  <STANDARD_INCHI_KEY>  (8) 
COJIKWHAFLDDBV-NZNQWUEYSA-N

$$$$

     RDKit          2D

 19 21  0  0  1  0  0  0  0  0999 V2000
    8.2260    5.3309    0.0000 C   0  0  0  0  0  0  0  0  0  0  0  0
    8.2260    6.8749    0.0000 C   0  0  0  0  0  0  0  0  0  0  0  0
    8.6120    5.6342    0.0000 C   0  0  0  0  0  0  0  0  0  0  0  0
    8.9704    5.0000    0.0000 C   0  0  0  0  0  0  0  0  0  0  0  0
    8.6120    6.4338    0.0000 C   0  0  0  0  0  0  0  0  0  0  0  0
    8.9704    7.0679    0.0000 C   0  0  0  0  0  0  0  0  0  0  0  0
    7.4815    7.0679    0.0000 C   0  0  0  0  0  0  0  0  0  0  0  0
    7.1231    6.4062    0.0000 C   0  0  0  0  0  0  0  0  0  0  0  0
    7.1231    5.6342    0.0000 O   0  0  0  0  0  0  0  0  0  0  0  0
    6.3786    6.6268    0.0000 C   0  0  0  0  0  0  0  0  0  0  0  0
    5.6617    6.4338    0.0000 C   0  0  0  0  0  0  0  0  0  0  0  0
    5.0000    6.7371    0.0000 Br  0  0  0  0  0  0  0  0  0  0  0  0
    6.0202    7.0679    0.0000 C   0  0  0  0  0  0  0  0  0  0  0  0
    6.0202    7.7848    0.0000 C   0  0  0  0  0  0  0  0  0  0  0  0
    6.7646    6.8474    0.0000 O   0  0  0  0  0  0  0  0  0  0  0  0
    7.4815    7.7848    0.0000 C   0  0  0  0  0  0  0  0  0  0  0  0
    9.3289    6.5992    0.0000 O   0  0  0  0  0  0  0  0  0  0  0  0
    9.3289    5.4412    0.0000 C   0  0  0  0  0  0  0  0  0  0  0  0
    5.2757    7.0679    0.0000 C   0  0  0  0  0  0  0  0  0  0  0  0
  1  2  1  0
  3  4  1  0
  3  9  1  0
  3  5  1  0
  3 18  1  1
  4  1  1  0
  5  6  1  0
  5 17  1  1
  6  2  1  0
  2  7  1  0
  7  8  1  0
  7 15  1  0
  7 16  1  1
  8  9  1  0
  8 10  1  0
 10 11  1  0
 11 12  1  1
 11 13  1  0
 13 14  1  0
 13 15  1  0
 13 19  1  0
M  END
>  <COMPOUND_ID>  (9) 
CMNPD15854

>  <MOLECULAR_FORMULA>  (9) 
C15H25BrO3

>  <MOLECULAR_WEIGHT>  (9) 
333.2660000000001

>  <MOLECULAR_MASS>  (9) 
332.09870675999997

>  <ALOGP>  (9) 
3.0260000000000016

>  <ROTATABLE_BONDS>  (9) 
0

>  <HBA>  (9) 
3

>  <HBD>  (9) 
1

>  <POLAR_SURFACE_AREA>  (9) 
38.69

>  <AROMATIC_RINGS>  (9) 
0

>  <HEAVY_ATOMS>  (9) 
19

>  <QED_WEIGHTED>  (9) 
0.6927836424606938

>  <BLOOD_BRAIN_BARRIER_PENETRATION>  (9) 
-0.138

>  <BLOOD_BRAIN_BARRIER_PENETRATION_LEVEL>  (9) 
2

>  <HUMAN_INTESTINAL_ABSORPTION_LEVEL>  (9) 
0

>  <AQUEOUS_SOLUBILITY>  (9) 
-3.507

>  <AQUEOUS_SOLUBILITY_LEVEL>  (9) 
3

>  <CYP2D6_BINDING_MODEL>  (9) 
false

>  <HEPATOTOXICITY_MODEL>  (9) 
true

>  <PLASMA_PROTEIN_BINDING_MODEL>  (9) 
false

>  <SMILES>  (9) 
C1C[C@@]2(C)[C@@H](O)CC1[C@]3(C)C(C[C@H](C(C)(O3)C)Br)O2

>  <STANDARD_INCHI>  (9) 
InChI=1S/C15H25BrO3/c1-13(2)10(16)8-12-15(4,19-13)9-5-6-14(3,18-12)11(17)7-9/h9-12,17H,5-8H2,1-4H3/t9?,10-,11+,12?,14+,15-/m1/s1

>  <STANDARD_INCHI_KEY>  (9) 
IFRYZAZPOYZDBK-NWOHRIMVSA-N

$$$$

     RDKit          2D

 18 20  0  0  1  0  0  0  0  0999 V2000
    5.7151    6.2653    0.0000 C   0  0  0  0  0  0  0  0  0  0  0  0
    5.7151    5.4126    0.0000 C   0  0  0  0  0  0  0  0  0  0  0  0
    6.4303    5.0000    0.0000 C   0  0  0  0  0  0  0  0  0  0  0  0
    7.1454    5.4126    0.0000 C   0  0  0  0  0  0  0  0  0  0  0  0
    7.1454    6.2653    0.0000 C   0  0  0  0  0  0  0  0  0  0  0  0
    6.4303    6.6503    0.0000 C   0  0  0  0  0  0  0  0  0  0  0  0
    7.8606    5.8252    0.0000 C   0  0  0  0  0  0  0  0  0  0  0  0
    8.5757    6.2653    0.0000 C   0  0  0  0  0  0  0  0  0  0  0  0
    8.5757    7.0629    0.0000 C   0  0  0  0  0  0  0  0  0  0  0  0
    7.8606    7.4755    0.0000 C   0  0  0  0  0  0  0  0  0  0  0  0
    7.1454    7.0629    0.0000 C   0  0  0  0  0  0  0  0  0  0  0  0
    9.2909    7.4755    0.0000 O   0  0  0  0  0  0  0  0  0  0  0  0
    6.0177    7.3655    0.0000 C   0  0  0  0  0  0  0  0  0  0  0  0
    6.6503    7.4480    0.0000 C   0  0  0  0  0  0  0  0  0  0  0  0
    7.1454    7.8881    0.0000 O   0  0  0  0  0  0  0  0  0  0  0  0
    5.0000    6.6503    0.0000 Br  0  0  0  0  0  0  0  0  0  0  0  0
    5.0000    5.0000    0.0000 O   0  0  0  0  0  0  0  0  0  0  0  0
    7.8606    5.0000    0.0000 C   0  0  0  0  0  0  0  0  0  0  0  0
  1  2  1  0
  1  6  1  0
  1 16  1  1
  2  3  1  0
  2 17  1  1
  3  4  1  0
  4  5  1  0
  4 18  2  0
  5  6  1  0
  5  7  1  6
  5 11  1  0
  6 13  1  0
  6 14  1  0
  7  8  1  0
  8  9  1  0
  9 10  1  0
  9 12  2  0
 10 11  1  0
 10 15  1  6
 11 15  1  6
M  END
>  <COMPOUND_ID>  (10) 
CMNPD27846

>  <MOLECULAR_FORMULA>  (10) 
C14H19BrO3

>  <MOLECULAR_WEIGHT>  (10) 
315.20700000000005

>  <MOLECULAR_MASS>  (10) 
314.051756568

>  <ALOGP>  (10) 
2.2135999999999996

>  <ROTATABLE_BONDS>  (10) 
0

>  <HBA>  (10) 
3

>  <HBD>  (10) 
1

>  <POLAR_SURFACE_AREA>  (10) 
49.83

>  <AROMATIC_RINGS>  (10) 
0

>  <HEAVY_ATOMS>  (10) 
18

>  <QED_WEIGHTED>  (10) 
0.42353833373194366

>  <BLOOD_BRAIN_BARRIER_PENETRATION>  (10) 
-0.37

>  <BLOOD_BRAIN_BARRIER_PENETRATION_LEVEL>  (10) 
2

>  <HUMAN_INTESTINAL_ABSORPTION_LEVEL>  (10) 
0

>  <AQUEOUS_SOLUBILITY>  (10) 
-3.14

>  <AQUEOUS_SOLUBILITY_LEVEL>  (10) 
3

>  <CYP2D6_BINDING_MODEL>  (10) 
false

>  <HEPATOTOXICITY_MODEL>  (10) 
false

>  <PLASMA_PROTEIN_BINDING_MODEL>  (10) 
true

>  <SMILES>  (10) 
[C@H]1(Br)C(C)(C)[C@@]2([C@H](O3)[C@H]3C(=O)CC2)C(=C)C[C@H]1O

>  <STANDARD_INCHI>  (10) 
InChI=1S/C14H19BrO3/c1-7-6-9(17)11(15)13(2,3)14(7)5-4-8(16)10-12(14)18-10/h9-12,17H,1,4-6H2,2-3H3/t9-,10-,11-,12-,14-/m1/s1

>  <STANDARD_INCHI_KEY>  (10) 
OUAUZXNKBWLNAL-CBLPJQPBSA-N

$$$$

     RDKit          2D

 19 20  0  0  1  0  0  0  0  0999 V2000
    5.6863    6.5374    0.0000 C   0  0  0  0  0  0  0  0  0  0  0  0
    5.0000    6.9766    0.0000 C   0  0  0  0  0  0  0  0  0  0  0  0
    6.4276    6.9217    0.0000 C   0  0  0  0  0  0  0  0  0  0  0  0
    6.4550    7.7178    0.0000 Cl  0  0  0  0  0  0  0  0  0  0  0  0
    9.5572    5.9883    0.0000 C   0  0  0  0  0  0  0  0  0  0  0  0
    9.2003    5.1647    0.0000 C   0  0  0  0  0  0  0  0  0  0  0  0
    8.4865    5.6040    0.0000 O   0  0  0  0  0  0  0  0  0  0  0  0
    9.2552    6.8119    0.0000 C   0  0  0  0  0  0  0  0  0  0  0  0
    8.5140    6.4276    0.0000 C   0  0  0  0  0  0  0  0  0  0  0  0
    7.8276    6.8668    0.0000 C   0  0  0  0  0  0  0  0  0  0  0  0
    7.1139    6.4825    0.0000 C   0  0  0  0  0  0  0  0  0  0  0  0
    7.0864    5.6589    0.0000 O   0  0  0  0  0  0  0  0  0  0  0  0
    9.9415    6.3726    0.0000 O   0  0  0  0  0  0  0  0  0  0  0  0
    9.9141    5.5491    0.0000 C   0  0  0  0  0  0  0  0  0  0  0  0
   10.6004    5.1098    0.0000 C   0  0  0  0  0  0  0  0  0  0  0  0
   11.9730    5.0000    0.0000 C   0  0  0  0  0  0  0  0  0  0  0  0
   11.3142    5.4667    0.0000 C   0  0  0  0  0  0  0  0  0  0  0  0
   12.7143    5.3294    0.0000 C   0  0  0  0  0  0  0  0  0  0  0  0
   13.4829    5.6589    0.0000 C   0  0  0  0  0  0  0  0  0  0  0  0
  1  2  2  0
  1  3  1  0
  3  4  1  0
  3 11  1  0
  6  5  1  0
  8  5  1  0
  6  7  1  6
  6 14  1  0
  7  9  1  0
  8  9  1  0
  8 13  1  6
  9 10  1  1
 10 11  1  0
 11 12  1  0
 13 14  1  0
 14 15  1  6
 15 17  1  0
 16 17  2  0
 16 18  1  0
 18 19  3  0
M  END
>  <COMPOUND_ID>  (11) 
CMNPD5959

>  <MOLECULAR_FORMULA>  (11) 
C15H19ClO3

>  <MOLECULAR_WEIGHT>  (11) 
282.767

>  <MOLECULAR_MASS>  (11) 
282.10227214800005

>  <ALOGP>  (11) 
2.0351999999999997

>  <ROTATABLE_BONDS>  (11) 
6

>  <HBA>  (11) 
3

>  <HBD>  (11) 
1

>  <POLAR_SURFACE_AREA>  (11) 
38.69

>  <AROMATIC_RINGS>  (11) 
0

>  <HEAVY_ATOMS>  (11) 
19

>  <QED_WEIGHTED>  (11) 
0.4602592542390462

>  <BLOOD_BRAIN_BARRIER_PENETRATION>  (11) 
3.1e-002

>  <BLOOD_BRAIN_BARRIER_PENETRATION_LEVEL>  (11) 
1

>  <HUMAN_INTESTINAL_ABSORPTION_LEVEL>  (11) 
0

>  <AQUEOUS_SOLUBILITY>  (11) 
-2.774

>  <AQUEOUS_SOLUBILITY_LEVEL>  (11) 
3

>  <CYP2D6_BINDING_MODEL>  (11) 
false

>  <HEPATOTOXICITY_MODEL>  (11) 
true

>  <PLASMA_PROTEIN_BINDING_MODEL>  (11) 
true

>  <SMILES>  (11) 
C(C(C(O)C[C@@H]([C@H](O[C@@H]1C\C=C\C#C)C[C@H]12)O2)Cl)=C

>  <STANDARD_INCHI>  (11) 
InChI=1S/C15H19ClO3/c1-3-5-6-7-12-14-9-15(18-12)13(19-14)8-11(17)10(16)4-2/h1,4-6,10-15,17H,2,7-9H2/b6-5+/t10?,11?,12-,13+,14-,15-/m1/s1

>  <STANDARD_INCHI_KEY>  (11) 
YPGCUXSJKSQPCA-INDSLRCGSA-N

$$$$

     RDKit          2D

 18 18  0  0  1  0  0  0  0  0999 V2000
    6.0203    5.0000    0.0000 C   0  0  0  0  0  0  0  0  0  0  0  0
    6.4339    5.6894    0.0000 C   0  0  0  0  0  0  0  0  0  0  0  0
    6.8475    5.0000    0.0000 C   0  0  0  0  0  0  0  0  0  0  0  0
    5.7169    6.1030    0.0000 C   0  0  0  0  0  0  0  0  0  0  0  0
    5.7169    6.9302    0.0000 C   0  0  0  0  0  0  0  0  0  0  0  0
    6.4339    7.3438    0.0000 C   0  0  0  0  0  0  0  0  0  0  0  0
    6.4339    8.1711    0.0000 O   0  0  0  0  0  0  0  0  0  0  0  0
    7.1508    6.9302    0.0000 C   0  0  0  0  0  0  0  0  0  0  0  0
    7.8953    7.3438    0.0000 C   0  0  0  0  0  0  0  0  0  0  0  0
    7.1508    6.1030    0.0000 C   0  0  0  0  0  0  0  0  0  0  0  0
    5.0000    5.6894    0.0000 Br  0  0  0  0  0  0  0  0  0  0  0  0
    7.8953    5.6894    0.0000 C   0  0  0  0  0  0  0  0  0  0  0  0
    8.6122    6.1030    0.0000 C   0  0  0  0  0  0  0  0  0  0  0  0
    9.3292    5.6894    0.0000 C   0  0  0  0  0  0  0  0  0  0  0  0
    8.9156    5.0000    0.0000 C   0  0  0  0  0  0  0  0  0  0  0  0
   10.0461    6.1030    0.0000 C   0  0  0  0  0  0  0  0  0  0  0  0
   10.7631    5.6894    0.0000 C   0  0  0  0  0  0  0  0  0  0  0  0
    9.7428    5.0000    0.0000 O   0  0  0  0  0  0  0  0  0  0  0  0
  1  2  1  0
  2  3  1  0
  2  4  1  0
  2 10  1  0
  4  5  1  0
  4 11  1  6
  5  6  1  0
  6  7  1  1
  6  8  1  0
  8  9  2  0
  8 10  1  0
 10 12  1  6
 12 13  1  0
 13 14  1  0
 14 15  1  0
 14 16  1  0
 14 18  1  0
 16 17  2  0
M  END
>  <COMPOUND_ID>  (12) 
CMNPD4788

>  <MOLECULAR_FORMULA>  (12) 
C15H25BrO2

>  <MOLECULAR_WEIGHT>  (12) 
317.26700000000005

>  <MOLECULAR_MASS>  (12) 
316.10379214

>  <ALOGP>  (12) 
3.430300000000003

>  <ROTATABLE_BONDS>  (12) 
4

>  <HBA>  (12) 
2

>  <HBD>  (12) 
2

>  <POLAR_SURFACE_AREA>  (12) 
40.46

>  <AROMATIC_RINGS>  (12) 
0

>  <HEAVY_ATOMS>  (12) 
18

>  <QED_WEIGHTED>  (12) 
0.6159312603280426

>  <BLOOD_BRAIN_BARRIER_PENETRATION>  (12) 
0.133

>  <BLOOD_BRAIN_BARRIER_PENETRATION_LEVEL>  (12) 
1

>  <HUMAN_INTESTINAL_ABSORPTION_LEVEL>  (12) 
0

>  <AQUEOUS_SOLUBILITY>  (12) 
-2.937

>  <AQUEOUS_SOLUBILITY_LEVEL>  (12) 
3

>  <CYP2D6_BINDING_MODEL>  (12) 
false

>  <HEPATOTOXICITY_MODEL>  (12) 
false

>  <PLASMA_PROTEIN_BINDING_MODEL>  (12) 
true

>  <SMILES>  (12) 
CC1([C@@H](CCC(O)(C=C)C)C(=C)[C@H](O)C[C@H]1Br)C

>  <STANDARD_INCHI>  (12) 
InChI=1S/C15H25BrO2/c1-6-15(5,18)8-7-11-10(2)12(17)9-13(16)14(11,3)4/h6,11-13,17-18H,1-2,7-9H2,3-5H3/t11-,12+,13+,15?/m0/s1

>  <STANDARD_INCHI_KEY>  (12) 
IZWGWCHZYVMDQK-IRYOAWFSSA-N

$$$$

     RDKit          2D

 18 20  0  0  1  0  0  0  0  0999 V2000
    6.3194    6.4019    0.0000 C   0  0  0  0  0  0  0  0  0  0  0  0
    7.0891    6.6768    0.0000 C   0  0  0  0  0  0  0  0  0  0  0  0
    7.8313    6.2645    0.0000 C   0  0  0  0  0  0  0  0  0  0  0  0
    5.8246    7.0616    0.0000 C   0  0  0  0  0  0  0  0  0  0  0  0
    6.3194    7.7488    0.0000 C   0  0  0  0  0  0  0  0  0  0  0  0
    5.7147    8.3536    0.0000 C   0  0  0  0  0  0  0  0  0  0  0  0
    6.7318    8.4085    0.0000 O   0  0  0  0  0  0  0  0  0  0  0  0
    7.1166    7.5014    0.0000 C   0  0  0  0  0  0  0  0  0  0  0  0
    7.8313    7.8863    0.0000 C   0  0  0  0  0  0  0  0  0  0  0  0
    8.5460    7.5014    0.0000 C   0  0  0  0  0  0  0  0  0  0  0  0
    9.1232    8.0787    0.0000 C   0  0  0  0  0  0  0  0  0  0  0  0
    8.5185    6.6493    0.0000 C   0  0  0  0  0  0  0  0  0  0  0  0
    7.8313    7.0616    0.0000 O   0  0  0  0  0  0  0  0  0  0  0  0
    5.0000    7.0616    0.0000 Cl  0  0  0  0  0  0  0  0  0  0  0  0
    7.8313    5.4123    0.0000 C   0  0  0  0  0  0  0  0  0  0  0  0
    7.1166    5.0000    0.0000 C   0  0  0  0  0  0  0  0  0  0  0  0
    8.5460    5.0000    0.0000 C   0  0  0  0  0  0  0  0  0  0  0  0
    9.2607    7.1716    0.0000 C   0  0  0  0  0  0  0  0  0  0  0  0
  2  1  1  1
  1  4  1  0
  2  3  1  0
  2  8  1  0
  2 13  1  0
  3 12  1  0
  3 15  1  6
  4  5  1  0
  4 14  1  6
  5  6  1  6
  5  7  1  0
  5  8  1  0
  8  9  1  6
  8 13  1  0
  9 10  1  0
 10 11  1  0
 10 12  1  0
 15 16  1  0
 15 17  1  0
 10 18  1  0
M  END
>  <COMPOUND_ID>  (13) 
CMNPD12543

>  <MOLECULAR_FORMULA>  (13) 
C15H25ClO2

>  <MOLECULAR_WEIGHT>  (13) 
272.816

>  <MOLECULAR_MASS>  (13) 
272.15430772

>  <ALOGP>  (13) 
3.3485000000000023

>  <ROTATABLE_BONDS>  (13) 
1

>  <HBA>  (13) 
2

>  <HBD>  (13) 
1

>  <POLAR_SURFACE_AREA>  (13) 
32.76

>  <AROMATIC_RINGS>  (13) 
0

>  <HEAVY_ATOMS>  (13) 
18

>  <QED_WEIGHTED>  (13) 
0.586533743657143

>  <BLOOD_BRAIN_BARRIER_PENETRATION>  (13) 
0.23

>  <BLOOD_BRAIN_BARRIER_PENETRATION_LEVEL>  (13) 
1

>  <HUMAN_INTESTINAL_ABSORPTION_LEVEL>  (13) 
0

>  <AQUEOUS_SOLUBILITY>  (13) 
-3.99

>  <AQUEOUS_SOLUBILITY_LEVEL>  (13) 
3

>  <CYP2D6_BINDING_MODEL>  (13) 
false

>  <HEPATOTOXICITY_MODEL>  (13) 
true

>  <PLASMA_PROTEIN_BINDING_MODEL>  (13) 
true

>  <SMILES>  (13) 
C1[C@H](Cl)[C@]([C@]2(O[C@@]123)CC(C)(C[C@@H]3C(C)C)C)(O)C

>  <STANDARD_INCHI>  (13) 
InChI=1S/C15H25ClO2/c1-9(2)10-6-12(3,4)8-15-13(5,17)11(16)7-14(10,15)18-15/h9-11,17H,6-8H2,1-5H3/t10-,11+,13-,14-,15-/m1/s1

>  <STANDARD_INCHI_KEY>  (13) 
ZXBCSPUAOMNNKQ-OBRUSBNWSA-N

$$$$

     RDKit          2D

 20 21  0  0  1  0  0  0  0  0999 V2000
    5.0000    5.8259    0.0000 Br  0  0  0  0  0  0  0  0  0  0  0  0
    5.6607    6.3214    0.0000 C   0  0  0  0  0  0  0  0  0  0  0  0
    6.2663    5.7433    0.0000 C   0  0  0  0  0  0  0  0  0  0  0  0
    5.6882    7.1748    0.0000 C   0  0  0  0  0  0  0  0  0  0  0  0
    6.2663    7.6978    0.0000 C   0  0  0  0  0  0  0  0  0  0  0  0
    7.1472    7.6978    0.0000 C   0  0  0  0  0  0  0  0  0  0  0  0
    5.8534    5.0000    0.0000 C   0  0  0  0  0  0  0  0  0  0  0  0
    7.6427    7.1197    0.0000 C   0  0  0  0  0  0  0  0  0  0  0  0
    7.6703    6.3489    0.0000 C   0  0  0  0  0  0  0  0  0  0  0  0
    8.3310    6.7894    0.0000 C   0  0  0  0  0  0  0  0  0  0  0  0
    7.9180    7.6978    0.0000 O   0  0  0  0  0  0  0  0  0  0  0  0
    9.0742    6.4315    0.0000 C   0  0  0  0  0  0  0  0  0  0  0  0
    9.7349    6.8995    0.0000 C   0  0  0  0  0  0  0  0  0  0  0  0
   10.5057    6.5691    0.0000 C   0  0  0  0  0  0  0  0  0  0  0  0
    7.0646    5.7157    0.0000 O   0  0  0  0  0  0  0  0  0  0  0  0
   11.1664    7.0371    0.0000 C   0  0  0  0  0  0  0  0  0  0  0  0
   11.8271    7.5051    0.0000 C   0  0  0  0  0  0  0  0  0  0  0  0
    5.0551    5.0000    0.0000 C   0  0  0  0  0  0  0  0  0  0  0  0
    5.9635    8.4411    0.0000 O   0  0  0  0  0  0  0  0  0  0  0  0
    5.1376    8.5787    0.0000 C   0  0  0  0  0  0  0  0  0  0  0  0
  2  1  1  1
  2  3  1  0
  2  4  1  0
  3 15  1  0
  3  7  1  6
  4  5  1  0
  5  6  1  0
  5 19  1  6
  6  8  1  0
  6 11  1  1
  7 18  1  0
  8  9  1  0
  9 10  1  0
  9 15  1  1
 10 11  1  0
 10 12  1  1
 12 13  1  0
 13 14  2  0
 14 16  1  0
 16 17  3  0
 19 20  1  0
M  END
>  <COMPOUND_ID>  (14) 
CMNPD5950

>  <MOLECULAR_FORMULA>  (14) 
C16H23BrO3

>  <MOLECULAR_WEIGHT>  (14) 
343.2610000000001

>  <MOLECULAR_MASS>  (14) 
342.08305669599997

>  <ALOGP>  (14) 
3.0694000000000017

>  <ROTATABLE_BONDS>  (14) 
4

>  <HBA>  (14) 
3

>  <HBD>  (14) 
0

>  <POLAR_SURFACE_AREA>  (14) 
27.69

>  <AROMATIC_RINGS>  (14) 
0

>  <HEAVY_ATOMS>  (14) 
20

>  <QED_WEIGHTED>  (14) 
0.5800446272857109

>  <BLOOD_BRAIN_BARRIER_PENETRATION>  (14) 
0.469

>  <BLOOD_BRAIN_BARRIER_PENETRATION_LEVEL>  (14) 
1

>  <HUMAN_INTESTINAL_ABSORPTION_LEVEL>  (14) 
0

>  <AQUEOUS_SOLUBILITY>  (14) 
-4.195

>  <AQUEOUS_SOLUBILITY_LEVEL>  (14) 
2

>  <CYP2D6_BINDING_MODEL>  (14) 
false

>  <HEPATOTOXICITY_MODEL>  (14) 
true

>  <PLASMA_PROTEIN_BINDING_MODEL>  (14) 
true

>  <SMILES>  (14) 
Br[C@H]1C[C@H](OC)[C@@H]2C[C@H](O[C@@H]1CC)[C@]([H])(C\C=C\C#C)O2

>  <STANDARD_INCHI>  (14) 
InChI=1S/C16H23BrO3/c1-4-6-7-8-13-15-10-16(20-13)14(18-3)9-11(17)12(5-2)19-15/h1,6-7,11-16H,5,8-10H2,2-3H3/b7-6+/t11-,12+,13-,14-,15-,16-/m0/s1

>  <STANDARD_INCHI_KEY>  (14) 
NCJDUNOKUIFHSN-DLZREPTRSA-N

$$$$

     RDKit          2D

 20 21  0  0  1  0  0  0  0  0999 V2000
    5.0000    6.1305    0.0000 Br  0  0  0  0  0  0  0  0  0  0  0  0
    5.6893    6.4614    0.0000 C   0  0  0  0  0  0  0  0  0  0  0  0
    6.2408    5.9375    0.0000 C   0  0  0  0  0  0  0  0  0  0  0  0
    5.7169    7.2334    0.0000 C   0  0  0  0  0  0  0  0  0  0  0  0
    6.2408    7.7573    0.0000 C   0  0  0  0  0  0  0  0  0  0  0  0
    7.0128    7.7297    0.0000 C   0  0  0  0  0  0  0  0  0  0  0  0
    7.5367    7.2058    0.0000 C   0  0  0  0  0  0  0  0  0  0  0  0
    7.5091    6.4889    0.0000 C   0  0  0  0  0  0  0  0  0  0  0  0
    8.0054    7.3988    0.0000 C   0  0  0  0  0  0  0  0  0  0  0  0
    7.0404    8.3914    0.0000 O   0  0  0  0  0  0  0  0  0  0  0  0
    6.9852    5.9099    0.0000 O   0  0  0  0  0  0  0  0  0  0  0  0
    8.7775    7.4264    0.0000 C   0  0  0  0  0  0  0  0  0  0  0  0
    7.8676    8.3914    0.0000 O   0  0  0  0  0  0  0  0  0  0  0  0
    5.9375    5.2206    0.0000 C   0  0  0  0  0  0  0  0  0  0  0  0
    5.1930    5.2206    0.0000 C   0  0  0  0  0  0  0  0  0  0  0  0
    9.2186    6.8198    0.0000 C   0  0  0  0  0  0  0  0  0  0  0  0
    9.2186    6.0478    0.0000 C   0  0  0  0  0  0  0  0  0  0  0  0
    8.6947    5.5239    0.0000 C   0  0  0  0  0  0  0  0  0  0  0  0
    8.1709    5.0000    0.0000 C   0  0  0  0  0  0  0  0  0  0  0  0
    8.6120    8.3914    0.0000 O   0  0  0  0  0  0  0  0  0  0  0  0
  2  1  1  1
  2  3  1  0
  2  4  1  0
  3 11  1  0
  3 14  1  6
  5  4  1  1
  5  6  1  0
  5 10  1  0
  6  7  1  0
  6 13  1  6
  8  7  1  6
  8  9  1  0
  8 11  1  0
  9 10  1  0
  9 12  1  6
 12 16  1  0
 13 20  1  0
 14 15  1  0
 16 17  2  0
 17 18  1  0
 18 19  3  0
M  END
>  <COMPOUND_ID>  (15) 
CMNPD16774

>  <MOLECULAR_FORMULA>  (15) 
C15H21BrO4

>  <MOLECULAR_WEIGHT>  (15) 
345.23300000000006

>  <MOLECULAR_MASS>  (15) 
344.062321252

>  <ALOGP>  (15) 
2.912600000000001

>  <ROTATABLE_BONDS>  (15) 
4

>  <HBA>  (15) 
4

>  <HBD>  (15) 
1

>  <POLAR_SURFACE_AREA>  (15) 
47.92

>  <AROMATIC_RINGS>  (15) 
0

>  <HEAVY_ATOMS>  (15) 
20

>  <QED_WEIGHTED>  (15) 
0.36840513442787287

>  <BLOOD_BRAIN_BARRIER_PENETRATION>  (15) 
2.8e-002

>  <BLOOD_BRAIN_BARRIER_PENETRATION_LEVEL>  (15) 
1

>  <HUMAN_INTESTINAL_ABSORPTION_LEVEL>  (15) 
0

>  <AQUEOUS_SOLUBILITY>  (15) 
-3.575

>  <AQUEOUS_SOLUBILITY_LEVEL>  (15) 
3

>  <CYP2D6_BINDING_MODEL>  (15) 
false

>  <HEPATOTOXICITY_MODEL>  (15) 
true

>  <PLASMA_PROTEIN_BINDING_MODEL>  (15) 
true

>  <SMILES>  (15) 
Br[C@H]1C[C@H]2O[C@H](C\C=C/C#C)[C@@]([H])(O[C@@H]1CC)C[C@H]2OO

>  <STANDARD_INCHI>  (15) 
InChI=1S/C15H21BrO4/c1-3-5-6-7-12-14-9-15(20-17)13(19-12)8-10(16)11(4-2)18-14/h1,5-6,10-15,17H,4,7-9H2,2H3/b6-5-/t10-,11+,12+,13+,14-,15+/m0/s1

>  <STANDARD_INCHI_KEY>  (15) 
LKCIGYCRLQLMBC-NNNWXBAASA-N

$$$$

     RDKit          2D

 18 19  0  0  1  0  0  0  0  0999 V2000
    6.4339    6.1582    0.0000 C   0  0  0  0  0  0  0  0  0  0  0  0
    5.7170    6.5443    0.0000 C   0  0  0  0  0  0  0  0  0  0  0  0
    5.7170    7.3715    0.0000 C   0  0  0  0  0  0  0  0  0  0  0  0
    7.1509    6.5443    0.0000 C   0  0  0  0  0  0  0  0  0  0  0  0
    7.1233    7.3715    0.0000 C   0  0  0  0  0  0  0  0  0  0  0  0
    6.4339    7.7852    0.0000 C   0  0  0  0  0  0  0  0  0  0  0  0
    7.1509    5.7170    0.0000 C   0  0  0  0  0  0  0  0  0  0  0  0
    7.8403    5.3033    0.0000 C   0  0  0  0  0  0  0  0  0  0  0  0
    8.5849    5.7170    0.0000 C   0  0  0  0  0  0  0  0  0  0  0  0
    8.5849    6.5443    0.0000 C   0  0  0  0  0  0  0  0  0  0  0  0
    7.8403    6.9579    0.0000 C   0  0  0  0  0  0  0  0  0  0  0  0
    6.0203    5.4412    0.0000 C   0  0  0  0  0  0  0  0  0  0  0  0
    6.8476    5.4412    0.0000 C   0  0  0  0  0  0  0  0  0  0  0  0
    9.4121    5.7170    0.0000 C   0  0  0  0  0  0  0  0  0  0  0  0
    5.0000    6.1306    0.0000 Br  0  0  0  0  0  0  0  0  0  0  0  0
    5.0000    7.7852    0.0000 O   0  0  0  0  0  0  0  0  0  0  0  0
    8.9985    5.0000    0.0000 O   0  0  0  0  0  0  0  0  0  0  0  0
    7.8403    7.7852    0.0000 C   0  0  0  0  0  0  0  0  0  0  0  0
  1  2  1  0
  1  4  1  0
  1 12  1  0
  1 13  1  0
  2  3  1  0
  2 15  1  1
  3  6  1  0
  3 16  1  1
  4  5  1  0
  4  7  1  0
  4 11  1  6
  5  6  1  0
  7  8  2  0
  8  9  1  0
  9 10  1  0
  9 14  1  1
  9 17  1  0
 10 11  1  0
  5 18  2  0
M  END
>  <COMPOUND_ID>  (16) 
CMNPD8856

>  <MOLECULAR_FORMULA>  (16) 
C15H23BrO2

>  <MOLECULAR_WEIGHT>  (16) 
315.251

>  <MOLECULAR_MASS>  (16) 
314.088142076

>  <ALOGP>  (16) 
3.184300000000003

>  <ROTATABLE_BONDS>  (16) 
0

>  <HBA>  (16) 
2

>  <HBD>  (16) 
2

>  <POLAR_SURFACE_AREA>  (16) 
40.46

>  <AROMATIC_RINGS>  (16) 
0

>  <HEAVY_ATOMS>  (16) 
18

>  <QED_WEIGHTED>  (16) 
0.5323150132034967

>  <BLOOD_BRAIN_BARRIER_PENETRATION>  (16) 
5.e-003

>  <BLOOD_BRAIN_BARRIER_PENETRATION_LEVEL>  (16) 
1

>  <HUMAN_INTESTINAL_ABSORPTION_LEVEL>  (16) 
0

>  <AQUEOUS_SOLUBILITY>  (16) 
-3.202

>  <AQUEOUS_SOLUBILITY_LEVEL>  (16) 
3

>  <CYP2D6_BINDING_MODEL>  (16) 
false

>  <HEPATOTOXICITY_MODEL>  (16) 
false

>  <PLASMA_PROTEIN_BINDING_MODEL>  (16) 
false

>  <SMILES>  (16) 
C1(C)(C)[C@@]2(CC[C@@](O)(C)C=C2)C(=C)C[C@H](O)[C@@H]1Br

>  <STANDARD_INCHI>  (16) 
InChI=1S/C15H23BrO2/c1-10-9-11(17)12(16)13(2,3)15(10)7-5-14(4,18)6-8-15/h5,7,11-12,17-18H,1,6,8-9H2,2-4H3/t11-,12-,14+,15-/m0/s1

>  <STANDARD_INCHI_KEY>  (16) 
RLCBOPJHZRVMGC-VIRABCJISA-N

$$$$

     RDKit          2D

 19 22  0  0  1  0  0  0  0  0999 V2000
    6.6235    5.0000    0.0000 C   0  0  0  0  0  0  0  0  0  0  0  0
    6.4034    5.7980    0.0000 C   0  0  0  0  0  0  0  0  0  0  0  0
    5.8255    5.1926    0.0000 C   0  0  0  0  0  0  0  0  0  0  0  0
    5.7980    6.3483    0.0000 C   0  0  0  0  0  0  0  0  0  0  0  0
    5.0000    6.1007    0.0000 Br  0  0  0  0  0  0  0  0  0  0  0  0
    5.9631    7.1463    0.0000 C   0  0  0  0  0  0  0  0  0  0  0  0
    6.7611    7.3940    0.0000 C   0  0  0  0  0  0  0  0  0  0  0  0
    7.3665    6.8436    0.0000 C   0  0  0  0  0  0  0  0  0  0  0  0
    7.4765    7.6416    0.0000 C   0  0  0  0  0  0  0  0  0  0  0  0
    8.1094    7.2014    0.0000 O   0  0  0  0  0  0  0  0  0  0  0  0
    7.1738    6.0456    0.0000 C   0  0  0  0  0  0  0  0  0  0  0  0
    7.6967    5.3852    0.0000 C   0  0  0  0  0  0  0  0  0  0  0  0
    8.5222    5.3852    0.0000 C   0  0  0  0  0  0  0  0  0  0  0  0
    9.0450    6.0456    0.0000 C   0  0  0  0  0  0  0  0  0  0  0  0
    8.8524    6.8436    0.0000 C   0  0  0  0  0  0  0  0  0  0  0  0
    9.5678    7.2564    0.0000 C   0  0  0  0  0  0  0  0  0  0  0  0
   10.1732    6.7060    0.0000 O   0  0  0  0  0  0  0  0  0  0  0  0
    9.8705    5.9631    0.0000 C   0  0  0  0  0  0  0  0  0  0  0  0
    9.3477    5.2752    0.0000 O   0  0  0  0  0  0  0  0  0  0  0  0
  1  2  1  0
  2  3  1  0
  2  4  1  0
  2 11  1  0
  4  5  1  1
  4  6  1  0
  6  7  1  0
  7  8  1  0
  8  9  1  1
  8 10  1  0
  8 11  1  0
 10 15  1  0
 11 12  1  1
 12 13  1  0
 13 14  1  0
 13 19  1  0
 14 15  1  0
 14 18  1  0
 14 19  1  0
 15 16  1  1
 16 17  1  0
 17 18  1  0
M  END
>  <COMPOUND_ID>  (17) 
CMNPD5967

>  <MOLECULAR_FORMULA>  (17) 
C15H23BrO3

>  <MOLECULAR_WEIGHT>  (17) 
331.2500000000001

>  <MOLECULAR_MASS>  (17) 
330.08305669599997

>  <ALOGP>  (17) 
2.9015000000000013

>  <ROTATABLE_BONDS>  (17) 
0

>  <HBA>  (17) 
3

>  <HBD>  (17) 
0

>  <POLAR_SURFACE_AREA>  (17) 
30.990000000000002

>  <AROMATIC_RINGS>  (17) 
0

>  <HEAVY_ATOMS>  (17) 
19

>  <QED_WEIGHTED>  (17) 
0.5051571828466408

>  <BLOOD_BRAIN_BARRIER_PENETRATION>  (17) 
5.4e-002

>  <BLOOD_BRAIN_BARRIER_PENETRATION_LEVEL>  (17) 
1

>  <HUMAN_INTESTINAL_ABSORPTION_LEVEL>  (17) 
0

>  <AQUEOUS_SOLUBILITY>  (17) 
-4.104

>  <AQUEOUS_SOLUBILITY_LEVEL>  (17) 
2

>  <CYP2D6_BINDING_MODEL>  (17) 
false

>  <HEPATOTOXICITY_MODEL>  (17) 
true

>  <PLASMA_PROTEIN_BINDING_MODEL>  (17) 
true

>  <SMILES>  (17) 
CC1([C@]([H])(CC2C3(O2)[C@H](COC3)O4)[C@]4(C)CC[C@@H]1Br)C

>  <STANDARD_INCHI>  (17) 
InChI=1S/C15H23BrO3/c1-13(2)9-6-11-15(19-11)8-17-7-12(15)18-14(9,3)5-4-10(13)16/h9-12H,4-8H2,1-3H3/t9-,10-,11?,12-,14-,15?/m0/s1

>  <STANDARD_INCHI_KEY>  (17) 
HSBJGVQMPSDWKN-BPPCPYLBSA-N

$$$$

     RDKit          2D

 19 20  0  0  1  0  0  0  0  0999 V2000
    8.4392    6.2656    0.0000 C   0  0  0  0  0  0  0  0  0  0  0  0
    9.1546    5.8529    0.0000 C   0  0  0  0  0  0  0  0  0  0  0  0
    9.8699    6.2656    0.0000 C   0  0  0  0  0  0  0  0  0  0  0  0
   10.5853    5.8529    0.0000 C   0  0  0  0  0  0  0  0  0  0  0  0
   11.3006    6.2656    0.0000 C   0  0  0  0  0  0  0  0  0  0  0  0
   12.0160    5.8529    0.0000 C   0  0  0  0  0  0  0  0  0  0  0  0
   11.3006    7.0910    0.0000 C   0  0  0  0  0  0  0  0  0  0  0  0
    9.8699    7.0910    0.0000 O   0  0  0  0  0  0  0  0  0  0  0  0
    8.3567    7.0910    0.0000 C   0  0  0  0  0  0  0  0  0  0  0  0
    7.5313    7.2286    0.0000 C   0  0  0  0  0  0  0  0  0  0  0  0
    7.1186    6.5683    0.0000 C   0  0  0  0  0  0  0  0  0  0  0  0
    7.6688    5.9355    0.0000 O   0  0  0  0  0  0  0  0  0  0  0  0
    9.1271    6.7334    0.0000 C   0  0  0  0  0  0  0  0  0  0  0  0
    6.2931    6.4582    0.0000 C   0  0  0  0  0  0  0  0  0  0  0  0
    5.7429    7.0910    0.0000 C   0  0  0  0  0  0  0  0  0  0  0  0
    5.0000    6.7334    0.0000 C   0  0  0  0  0  0  0  0  0  0  0  0
    5.0825    5.9355    0.0000 N   0  0  0  0  0  0  0  0  0  0  0  0
    5.9080    5.7704    0.0000 C   0  0  0  0  0  0  0  0  0  0  0  0
    6.2381    5.0000    0.0000 O   0  0  0  0  0  0  0  0  0  0  0  0
  1  2  1  0
  1  9  1  0
  1 12  1  0
  1 13  1  6
  2  3  1  0
  3  4  1  0
  3  8  2  0
  4  5  1  0
  5  6  1  0
  5  7  1  0
  9 10  1  0
 10 11  1  0
 11 12  1  0
 11 14  1  6
 14 15  2  0
 14 18  1  0
 15 16  1  0
 16 17  1  0
 17 18  1  0
 18 19  2  0
M  END
>  <COMPOUND_ID>  (18) 
CMNPD31503

>  <MOLECULAR_FORMULA>  (18) 
C15H23NO3

>  <MOLECULAR_WEIGHT>  (18) 
265.35299999999995

>  <MOLECULAR_MASS>  (18) 
265.167793596

>  <ALOGP>  (18) 
1.9855999999999998

>  <ROTATABLE_BONDS>  (18) 
5

>  <HBA>  (18) 
3

>  <HBD>  (18) 
1

>  <POLAR_SURFACE_AREA>  (18) 
55.4

>  <AROMATIC_RINGS>  (18) 
0

>  <HEAVY_ATOMS>  (18) 
19

>  <QED_WEIGHTED>  (18) 
0.8267245359567468

>  <BLOOD_BRAIN_BARRIER_PENETRATION>  (18) 
-0.603

>  <BLOOD_BRAIN_BARRIER_PENETRATION_LEVEL>  (18) 
3

>  <HUMAN_INTESTINAL_ABSORPTION_LEVEL>  (18) 
0

>  <AQUEOUS_SOLUBILITY>  (18) 
-2.55

>  <AQUEOUS_SOLUBILITY_LEVEL>  (18) 
3

>  <CYP2D6_BINDING_MODEL>  (18) 
false

>  <HEPATOTOXICITY_MODEL>  (18) 
true

>  <PLASMA_PROTEIN_BINDING_MODEL>  (18) 
false

>  <SMILES>  (18) 
[C@]1(C)(O[C@H](C2=CCNC2=O)CC1)CC(=O)CC(C)C

>  <STANDARD_INCHI>  (18) 
InChI=1S/C15H23NO3/c1-10(2)8-11(17)9-15(3)6-4-13(19-15)12-5-7-16-14(12)18/h5,10,13H,4,6-9H2,1-3H3,(H,16,18)/t13-,15-/m0/s1

>  <STANDARD_INCHI_KEY>  (18) 
CBQFPLCXOMPFGB-ZFWWWQNUSA-N

$$$$

     RDKit          2D

 19 21  0  0  1  0  0  0  0  0999 V2000
    5.7984    6.3490    0.0000 C   0  0  0  0  0  0  0  0  0  0  0  0
    6.4041    5.7984    0.0000 C   0  0  0  0  0  0  0  0  0  0  0  0
    5.8259    5.1927    0.0000 C   0  0  0  0  0  0  0  0  0  0  0  0
    5.0000    6.1013    0.0000 Br  0  0  0  0  0  0  0  0  0  0  0  0
    5.9636    7.1475    0.0000 C   0  0  0  0  0  0  0  0  0  0  0  0
    6.7620    7.3952    0.0000 C   0  0  0  0  0  0  0  0  0  0  0  0
    7.3677    6.8446    0.0000 C   0  0  0  0  0  0  0  0  0  0  0  0
    7.4778    7.6430    0.0000 C   0  0  0  0  0  0  0  0  0  0  0  0
    8.1111    7.2025    0.0000 O   0  0  0  0  0  0  0  0  0  0  0  0
    7.1750    6.0462    0.0000 C   0  0  0  0  0  0  0  0  0  0  0  0
    7.6981    5.3854    0.0000 C   0  0  0  0  0  0  0  0  0  0  0  0
    8.5240    5.3854    0.0000 C   0  0  0  0  0  0  0  0  0  0  0  0
    9.0471    6.0462    0.0000 C   0  0  0  0  0  0  0  0  0  0  0  0
    8.8544    6.8446    0.0000 C   0  0  0  0  0  0  0  0  0  0  0  0
    9.5702    7.2576    0.0000 C   0  0  0  0  0  0  0  0  0  0  0  0
   10.1759    6.7070    0.0000 O   0  0  0  0  0  0  0  0  0  0  0  0
    9.8731    5.9636    0.0000 C   0  0  0  0  0  0  0  0  0  0  0  0
   10.2861    5.2478    0.0000 O   0  0  0  0  0  0  0  0  0  0  0  0
    6.6244    5.0000    0.0000 C   0  0  0  0  0  0  0  0  0  0  0  0
  1  2  1  0
  1  4  1  1
  1  5  1  0
  2  3  1  0
  2 10  1  0
  2 19  1  0
  5  6  1  0
  6  7  1  0
  7  8  1  1
  7  9  1  0
  7 10  1  0
  9 14  1  0
 10 11  1  1
 11 12  1  0
 12 13  2  0
 13 14  1  0
 13 17  1  0
 14 15  1  1
 15 16  1  0
 16 17  1  0
 17 18  1  6
M  END
>  <COMPOUND_ID>  (19) 
CMNPD14924

>  <MOLECULAR_FORMULA>  (19) 
C15H23BrO3

>  <MOLECULAR_WEIGHT>  (19) 
331.25000000000006

>  <MOLECULAR_MASS>  (19) 
330.08305669599997

>  <ALOGP>  (19) 
3.008700000000001

>  <ROTATABLE_BONDS>  (19) 
0

>  <HBA>  (19) 
3

>  <HBD>  (19) 
1

>  <POLAR_SURFACE_AREA>  (19) 
38.69

>  <AROMATIC_RINGS>  (19) 
0

>  <HEAVY_ATOMS>  (19) 
19

>  <QED_WEIGHTED>  (19) 
0.5477843596328609

>  <BLOOD_BRAIN_BARRIER_PENETRATION>  (19) 
3.8e-002

>  <BLOOD_BRAIN_BARRIER_PENETRATION_LEVEL>  (19) 
1

>  <HUMAN_INTESTINAL_ABSORPTION_LEVEL>  (19) 
0

>  <AQUEOUS_SOLUBILITY>  (19) 
-3.925

>  <AQUEOUS_SOLUBILITY_LEVEL>  (19) 
3

>  <CYP2D6_BINDING_MODEL>  (19) 
false

>  <HEPATOTOXICITY_MODEL>  (19) 
true

>  <PLASMA_PROTEIN_BINDING_MODEL>  (19) 
true

>  <SMILES>  (19) 
[C@@H]1(CC[C@]2([C@@]([H])(CC=C3[C@H](CO[C@@H]3O)O2)C1(C)C)C)Br

>  <STANDARD_INCHI>  (19) 
InChI=1S/C15H23BrO3/c1-14(2)11-5-4-9-10(8-18-13(9)17)19-15(11,3)7-6-12(14)16/h4,10-13,17H,5-8H2,1-3H3/t10-,11-,12-,13-,15-/m0/s1

>  <STANDARD_INCHI_KEY>  (19) 
VWPMNNGYNDUDNN-CXOVXGEYSA-N

$$$$

     RDKit          2D

 10 10  0  0  1  0  0  0  0  0999 V2000
    6.7112    5.0000    0.0000 Br  0  0  0  0  0  0  0  0  0  0  0  0
    6.4628    5.7728    0.0000 C   0  0  0  0  0  0  0  0  0  0  0  0
    6.9320    6.4628    0.0000 C   0  0  0  0  0  0  0  0  0  0  0  0
    5.6624    6.0488    0.0000 C   0  0  0  0  0  0  0  0  0  0  0  0
    5.6624    6.8768    0.0000 C   0  0  0  0  0  0  0  0  0  0  0  0
    5.0000    7.3460    0.0000 O   0  0  0  0  0  0  0  0  0  0  0  0
    6.4628    7.1252    0.0000 C   0  0  0  0  0  0  0  0  0  0  0  0
    6.7112    7.8980    0.0000 C   0  0  0  0  0  0  0  0  0  0  0  0
    7.7600    6.4628    0.0000 Br  0  0  0  0  0  0  0  0  0  0  0  0
    5.0000    5.5520    0.0000 O   0  0  0  0  0  0  0  0  0  0  0  0
  1  2  1  0
  2  3  2  0
  2  4  1  0
  3  7  1  0
  3  9  1  0
  4  5  1  0
  5  6  1  1
  5  7  1  0
  7  8  2  0
  4 10  1  6
M  END
>  <COMPOUND_ID>  (20) 
CMNPD601

>  <MOLECULAR_FORMULA>  (20) 
C6H6Br2O2

>  <MOLECULAR_WEIGHT>  (20) 
269.91999999999996

>  <MOLECULAR_MASS>  (20) 
267.873453632

>  <ALOGP>  (20) 
1.2793999999999999

>  <ROTATABLE_BONDS>  (20) 
0

>  <HBA>  (20) 
2

>  <HBD>  (20) 
2

>  <POLAR_SURFACE_AREA>  (20) 
40.46

>  <AROMATIC_RINGS>  (20) 
0

>  <HEAVY_ATOMS>  (20) 
10

>  <QED_WEIGHTED>  (20) 
0.6956744781523058

>  <BLOOD_BRAIN_BARRIER_PENETRATION>  (20) 
-0.546

>  <BLOOD_BRAIN_BARRIER_PENETRATION_LEVEL>  (20) 
3

>  <HUMAN_INTESTINAL_ABSORPTION_LEVEL>  (20) 
0

>  <AQUEOUS_SOLUBILITY>  (20) 
-0.939

>  <AQUEOUS_SOLUBILITY_LEVEL>  (20) 
4

>  <CYP2D6_BINDING_MODEL>  (20) 
false

>  <HEPATOTOXICITY_MODEL>  (20) 
true

>  <PLASMA_PROTEIN_BINDING_MODEL>  (20) 
true

>  <SMILES>  (20) 
BrC1=C(Br)C(=C)[C@H](O)[C@H]1O

>  <STANDARD_INCHI>  (20) 
InChI=1S/C6H6Br2O2/c1-2-3(7)4(8)6(10)5(2)9/h5-6,9-10H,1H2/t5-,6-/m0/s1

>  <STANDARD_INCHI_KEY>  (20) 
JYBJHZCCSPMMAM-WDSKDSINSA-N

$$$$

     RDKit          2D

 18 20  0  0  0  0  0  0  0  0999 V2000
    5.7991    6.3778    0.0000 C   0  0  0  0  0  0  0  0  0  0  0  0
    6.4054    5.8267    0.0000 C   0  0  0  0  0  0  0  0  0  0  0  0
    6.2400    5.0000    0.0000 C   0  0  0  0  0  0  0  0  0  0  0  0
    5.2480    5.7716    0.0000 C   0  0  0  0  0  0  0  0  0  0  0  0
    5.0000    6.5707    0.0000 O   0  0  0  0  0  0  0  0  0  0  0  0
    5.9920    7.1769    0.0000 C   0  0  0  0  0  0  0  0  0  0  0  0
    6.7911    7.4249    0.0000 C   0  0  0  0  0  0  0  0  0  0  0  0
    7.3974    6.8738    0.0000 C   0  0  0  0  0  0  0  0  0  0  0  0
    7.5076    7.6729    0.0000 C   0  0  0  0  0  0  0  0  0  0  0  0
    8.1414    7.2320    0.0000 O   0  0  0  0  0  0  0  0  0  0  0  0
    7.2045    6.0747    0.0000 C   0  0  0  0  0  0  0  0  0  0  0  0
    7.7280    5.4133    0.0000 C   0  0  0  0  0  0  0  0  0  0  0  0
    8.5547    5.4133    0.0000 C   0  0  0  0  0  0  0  0  0  0  0  0
    9.0507    6.0747    0.0000 C   0  0  0  0  0  0  0  0  0  0  0  0
    8.8854    6.8738    0.0000 C   0  0  0  0  0  0  0  0  0  0  0  0
    9.5743    7.2871    0.0000 C   0  0  0  0  0  0  0  0  0  0  0  0
   10.2081    6.7360    0.0000 O   0  0  0  0  0  0  0  0  0  0  0  0
    9.8774    5.9920    0.0000 C   0  0  0  0  0  0  0  0  0  0  0  0
  1  2  1  0
  1  4  1  0
  1  5  1  0
  1  6  1  0
  2  3  1  0
  2 11  1  0
  6  7  1  0
  7  8  1  0
  8  9  1  0
  8 10  1  0
  8 11  1  0
 10 15  1  0
 11 12  1  0
 12 13  1  0
 13 14  2  0
 14 15  1  0
 14 18  1  0
 15 16  1  0
 16 17  1  0
 17 18  1  0
M  END
>  <COMPOUND_ID>  (21) 
CMNPD15845

>  <MOLECULAR_FORMULA>  (21) 
C15H24O3

>  <MOLECULAR_WEIGHT>  (21) 
252.35399999999996

>  <MOLECULAR_MASS>  (21) 
252.172544628

>  <ALOGP>  (21) 
2.2877

>  <ROTATABLE_BONDS>  (21) 
0

>  <HBA>  (21) 
3

>  <HBD>  (21) 
1

>  <POLAR_SURFACE_AREA>  (21) 
38.69

>  <AROMATIC_RINGS>  (21) 
0

>  <HEAVY_ATOMS>  (21) 
18

>  <QED_WEIGHTED>  (21) 
0.6722600664084901

>  <BLOOD_BRAIN_BARRIER_PENETRATION>  (21) 
-0.295

>  <BLOOD_BRAIN_BARRIER_PENETRATION_LEVEL>  (21) 
2

>  <HUMAN_INTESTINAL_ABSORPTION_LEVEL>  (21) 
0

>  <AQUEOUS_SOLUBILITY>  (21) 
-2.775

>  <AQUEOUS_SOLUBILITY_LEVEL>  (21) 
3

>  <CYP2D6_BINDING_MODEL>  (21) 
false

>  <HEPATOTOXICITY_MODEL>  (21) 
false

>  <PLASMA_PROTEIN_BINDING_MODEL>  (21) 
false

>  <SMILES>  (21) 
C1(CCC2(C(CC=C3C(COC3)O2)C1C)C)(O)C

>  <STANDARD_INCHI>  (21) 
InChI=1S/C15H24O3/c1-10-12-5-4-11-8-17-9-13(11)18-15(12,3)7-6-14(10,2)16/h4,10,12-13,16H,5-9H2,1-3H3

>  <STANDARD_INCHI_KEY>  (21) 
COJIKWHAFLDDBV-UHFFFAOYSA-N

$$$$

     RDKit          2D

 18 20  0  0  1  0  0  0  0  0999 V2000
    5.6868    6.0989    0.0000 C   0  0  0  0  0  0  0  0  0  0  0  0
    6.3736    5.6868    0.0000 C   0  0  0  0  0  0  0  0  0  0  0  0
    5.9890    5.0000    0.0000 C   0  0  0  0  0  0  0  0  0  0  0  0
    5.0000    5.6868    0.0000 Br  0  0  0  0  0  0  0  0  0  0  0  0
    5.6868    6.8956    0.0000 C   0  0  0  0  0  0  0  0  0  0  0  0
    5.0000    7.3076    0.0000 O   0  0  0  0  0  0  0  0  0  0  0  0
    6.3736    7.3076    0.0000 C   0  0  0  0  0  0  0  0  0  0  0  0
    7.0879    6.8956    0.0000 C   0  0  0  0  0  0  0  0  0  0  0  0
    7.0879    7.6922    0.0000 O   0  0  0  0  0  0  0  0  0  0  0  0
    7.6922    7.3901    0.0000 C   0  0  0  0  0  0  0  0  0  0  0  0
    8.4889    7.2252    0.0000 C   0  0  0  0  0  0  0  0  0  0  0  0
    8.9834    7.8021    0.0000 C   0  0  0  0  0  0  0  0  0  0  0  0
    7.0879    6.0989    0.0000 C   0  0  0  0  0  0  0  0  0  0  0  0
    6.7857    5.0000    0.0000 C   0  0  0  0  0  0  0  0  0  0  0  0
    8.8461    6.4835    0.0000 C   0  0  0  0  0  0  0  0  0  0  0  0
    7.8296    6.8131    0.0000 C   0  0  0  0  0  0  0  0  0  0  0  0
    7.6922    5.6044    0.0000 C   0  0  0  0  0  0  0  0  0  0  0  0
    8.4889    5.7692    0.0000 C   0  0  0  0  0  0  0  0  0  0  0  0
  1  2  1  0
  1  4  1  1
  1  5  1  0
  2  3  1  0
  2 13  1  0
  2 14  1  0
  5  6  1  1
  5  7  1  0
  7  8  1  0
  8  9  1  1
  8 10  1  0
  8 13  1  0
 10 11  1  0
 11 12  2  0
 11 15  1  0
 13 16  1  0
 15 16  1  0
 13 17  1  6
 15 18  1  6
 17 18  1  0
M  END
>  <COMPOUND_ID>  (22) 
CMNPD1905

>  <MOLECULAR_FORMULA>  (22) 
C15H23BrO2

>  <MOLECULAR_WEIGHT>  (22) 
315.2510000000001

>  <MOLECULAR_MASS>  (22) 
314.088142076

>  <ALOGP>  (22) 
3.018200000000001

>  <ROTATABLE_BONDS>  (22) 
0

>  <HBA>  (22) 
2

>  <HBD>  (22) 
2

>  <POLAR_SURFACE_AREA>  (22) 
40.46

>  <AROMATIC_RINGS>  (22) 
0

>  <HEAVY_ATOMS>  (22) 
18

>  <QED_WEIGHTED>  (22) 
0.532786003962761

>  <BLOOD_BRAIN_BARRIER_PENETRATION>  (22) 
-5.3e-002

>  <BLOOD_BRAIN_BARRIER_PENETRATION_LEVEL>  (22) 
2

>  <HUMAN_INTESTINAL_ABSORPTION_LEVEL>  (22) 
0

>  <AQUEOUS_SOLUBILITY>  (22) 
-3.182

>  <AQUEOUS_SOLUBILITY_LEVEL>  (22) 
3

>  <CYP2D6_BINDING_MODEL>  (22) 
false

>  <HEPATOTOXICITY_MODEL>  (22) 
true

>  <PLASMA_PROTEIN_BINDING_MODEL>  (22) 
true

>  <SMILES>  (22) 
[C@@H]1([C@H](C[C@]2([C@@]3(C[C@@H](CC3)C(=C)C2)C1(C)C)O)O)Br

>  <STANDARD_INCHI>  (22) 
InChI=1S/C15H23BrO2/c1-9-6-15(18)8-11(17)12(16)13(2,3)14(15)5-4-10(9)7-14/h10-12,17-18H,1,4-8H2,2-3H3/t10-,11+,12+,14+,15-/m1/s1

>  <STANDARD_INCHI_KEY>  (22) 
WUQWVBLRRFTCJP-FUQNVFFISA-N

$$$$

     RDKit          2D

 15 15  0  0  1  0  0  0  0  0999 V2000
    7.2564    6.1282    0.0000 C   0  0  0  0  0  0  0  0  0  0  0  0
    7.9718    5.7154    0.0000 C   0  0  0  0  0  0  0  0  0  0  0  0
    7.5591    5.0000    0.0000 O   0  0  0  0  0  0  0  0  0  0  0  0
    6.5410    5.7430    0.0000 O   0  0  0  0  0  0  0  0  0  0  0  0
    7.2564    6.9537    0.0000 C   0  0  0  0  0  0  0  0  0  0  0  0
    6.5410    7.3665    0.0000 C   0  0  0  0  0  0  0  0  0  0  0  0
    5.8255    6.9812    0.0000 C   0  0  0  0  0  0  0  0  0  0  0  0
    5.8255    6.1282    0.0000 C   0  0  0  0  0  0  0  0  0  0  0  0
    5.0000    6.9812    0.0000 O   0  0  0  0  0  0  0  0  0  0  0  0
    8.6873    6.1282    0.0000 C   0  0  0  0  0  0  0  0  0  0  0  0
    9.4027    5.7154    0.0000 C   0  0  0  0  0  0  0  0  0  0  0  0
   10.1182    6.1282    0.0000 Br  0  0  0  0  0  0  0  0  0  0  0  0
    6.5410    8.1920    0.0000 Br  0  0  0  0  0  0  0  0  0  0  0  0
    5.4128    7.6967    0.0000 C   0  0  0  0  0  0  0  0  0  0  0  0
    8.3846    5.0000    0.0000 C   0  0  0  0  0  0  0  0  0  0  0  0
  1  2  1  0
  1  4  1  0
  1  5  1  1
  2  3  1  0
  2 10  1  0
  2 15  1  6
  4  8  1  0
  5  6  1  0
  6  7  1  0
  6 13  1  6
  7  8  1  0
  7  9  1  0
 10 11  2  0
 11 12  1  0
  7 14  1  6
M  END
>  <COMPOUND_ID>  (23) 
CMNPD9513

>  <MOLECULAR_FORMULA>  (23) 
C10H16Br2O3

>  <MOLECULAR_WEIGHT>  (23) 
344.043

>  <MOLECULAR_MASS>  (23) 
341.94661857200003

>  <ALOGP>  (23) 
1.9493999999999998

>  <ROTATABLE_BONDS>  (23) 
2

>  <HBA>  (23) 
3

>  <HBD>  (23) 
2

>  <POLAR_SURFACE_AREA>  (23) 
49.69

>  <AROMATIC_RINGS>  (23) 
0

>  <HEAVY_ATOMS>  (23) 
15

>  <QED_WEIGHTED>  (23) 
0.7533234650690379

>  <BLOOD_BRAIN_BARRIER_PENETRATION>  (23) 
-0.663

>  <BLOOD_BRAIN_BARRIER_PENETRATION_LEVEL>  (23) 
3

>  <HUMAN_INTESTINAL_ABSORPTION_LEVEL>  (23) 
0

>  <AQUEOUS_SOLUBILITY>  (23) 
-1.372

>  <AQUEOUS_SOLUBILITY_LEVEL>  (23) 
4

>  <CYP2D6_BINDING_MODEL>  (23) 
false

>  <HEPATOTOXICITY_MODEL>  (23) 
true

>  <PLASMA_PROTEIN_BINDING_MODEL>  (23) 
false

>  <SMILES>  (23) 
[C@H]1(C[C@@H](Br)[C@](C)(O)CO1)[C@@](C)(\C=C\Br)O

>  <STANDARD_INCHI>  (23) 
InChI=1S/C10H16Br2O3/c1-9(13,3-4-11)8-5-7(12)10(2,14)6-15-8/h3-4,7-8,13-14H,5-6H2,1-2H3/b4-3+/t7-,8+,9-,10-/m1/s1

>  <STANDARD_INCHI_KEY>  (23) 
UXIOBFWKWPDFRW-YEBTWRFZSA-N

$$$$

     RDKit          2D

 13 14  0  0  1  0  0  0  0  0999 V2000
    7.1492    6.9563    0.0000 C   0  0  0  0  0  0  0  0  0  0  0  0
    7.7554    7.5074    0.0000 C   0  0  0  0  0  0  0  0  0  0  0  0
    6.4328    7.3697    0.0000 C   0  0  0  0  0  0  0  0  0  0  0  0
    7.4248    8.2514    0.0000 C   0  0  0  0  0  0  0  0  0  0  0  0
    6.5981    8.1687    0.0000 O   0  0  0  0  0  0  0  0  0  0  0  0
    7.1492    6.1297    0.0000 C   0  0  0  0  0  0  0  0  0  0  0  0
    6.4328    5.7164    0.0000 C   0  0  0  0  0  0  0  0  0  0  0  0
    7.8656    5.7164    0.0000 O   0  0  0  0  0  0  0  0  0  0  0  0
    6.0195    5.0000    0.0000 C   0  0  0  0  0  0  0  0  0  0  0  0
    6.8461    5.0000    0.0000 C   0  0  0  0  0  0  0  0  0  0  0  0
    5.7164    6.1297    0.0000 C   0  0  0  0  0  0  0  0  0  0  0  0
    5.0000    5.7164    0.0000 Br  0  0  0  0  0  0  0  0  0  0  0  0
    5.7164    6.9563    0.0000 C   0  0  0  0  0  0  0  0  0  0  0  0
  1  2  2  0
  1  3  1  0
  1  6  1  0
  2  4  1  0
  3 13  1  1
  3  5  1  0
  4  5  1  0
  6  7  1  0
  6  8  1  6
  7  9  1  0
  7 10  1  0
  7 11  1  0
 11 12  1  1
 11 13  1  0
M  END
>  <COMPOUND_ID>  (24) 
CMNPD680

>  <MOLECULAR_FORMULA>  (24) 
C10H15BrO2

>  <MOLECULAR_WEIGHT>  (24) 
247.13199999999998

>  <MOLECULAR_MASS>  (24) 
246.02554182

>  <ALOGP>  (24) 
1.8659

>  <ROTATABLE_BONDS>  (24) 
0

>  <HBA>  (24) 
2

>  <HBD>  (24) 
1

>  <POLAR_SURFACE_AREA>  (24) 
29.46

>  <AROMATIC_RINGS>  (24) 
0

>  <HEAVY_ATOMS>  (24) 
13

>  <QED_WEIGHTED>  (24) 
0.5226966350621914

>  <BLOOD_BRAIN_BARRIER_PENETRATION>  (24) 
-0.197

>  <BLOOD_BRAIN_BARRIER_PENETRATION_LEVEL>  (24) 
2

>  <HUMAN_INTESTINAL_ABSORPTION_LEVEL>  (24) 
0

>  <AQUEOUS_SOLUBILITY>  (24) 
-2.105

>  <AQUEOUS_SOLUBILITY_LEVEL>  (24) 
3

>  <CYP2D6_BINDING_MODEL>  (24) 
false

>  <HEPATOTOXICITY_MODEL>  (24) 
true

>  <PLASMA_PROTEIN_BINDING_MODEL>  (24) 
false

>  <SMILES>  (24) 
C1([C@H](OC2)C[C@H](Br)C(C)(C)[C@H]1O)=C2

>  <STANDARD_INCHI>  (24) 
InChI=1S/C10H15BrO2/c1-10(2)8(11)5-7-6(9(10)12)3-4-13-7/h3,7-9,12H,4-5H2,1-2H3/t7-,8+,9+/m1/s1

>  <STANDARD_INCHI_KEY>  (24) 
FDFKMTXRKNETHS-VGMNWLOBSA-N

$$$$

     RDKit          2D

 21 22  0  0  1  0  0  0  0  0999 V2000
    5.7157    6.6517    0.0000 C   0  0  0  0  0  0  0  0  0  0  0  0
    6.4315    6.2388    0.0000 C   0  0  0  0  0  0  0  0  0  0  0  0
    5.7157    7.4775    0.0000 C   0  0  0  0  0  0  0  0  0  0  0  0
    6.4315    7.8904    0.0000 C   0  0  0  0  0  0  0  0  0  0  0  0
    6.4315    8.7163    0.0000 C   0  0  0  0  0  0  0  0  0  0  0  0
    5.7157    9.1292    0.0000 C   0  0  0  0  0  0  0  0  0  0  0  0
    5.0000    8.7163    0.0000 C   0  0  0  0  0  0  0  0  0  0  0  0
    5.7157    9.9550    0.0000 C   0  0  0  0  0  0  0  0  0  0  0  0
    7.1472    7.4775    0.0000 C   0  0  0  0  0  0  0  0  0  0  0  0
    7.9180    7.7528    0.0000 C   0  0  0  0  0  0  0  0  0  0  0  0
    7.7528    8.5511    0.0000 C   0  0  0  0  0  0  0  0  0  0  0  0
    8.4135    7.0646    0.0000 C   0  0  0  0  0  0  0  0  0  0  0  0
    7.9180    6.4039    0.0000 C   0  0  0  0  0  0  0  0  0  0  0  0
    7.1472    6.6517    0.0000 C   0  0  0  0  0  0  0  0  0  0  0  0
    8.5511    8.3034    0.0000 O   0  0  0  0  0  0  0  0  0  0  0  0
    9.2393    7.0646    0.0000 O   0  0  0  0  0  0  0  0  0  0  0  0
    9.2393    5.6607    0.0000 O   0  0  0  0  0  0  0  0  0  0  0  0
    9.6522    6.3764    0.0000 C   0  0  0  0  0  0  0  0  0  0  0  0
   10.4781    6.3764    0.0000 C   0  0  0  0  0  0  0  0  0  0  0  0
    6.4315    5.4129    0.0000 C   0  0  0  0  0  0  0  0  0  0  0  0
    5.7157    5.0000    0.0000 O   0  0  0  0  0  0  0  0  0  0  0  0
  1  2  2  0
  1  3  1  0
  2 20  1  0
  2 14  1  0
  3  4  2  0
  4  5  1  0
  4  9  1  0
  5  6  2  0
  6  7  1  0
  6  8  1  0
  9 10  1  0
  9 14  2  0
 10 11  1  1
 10 12  1  0
 10 15  1  0
 12 16  1  1
 12 13  1  0
 13 14  1  0
 18 19  1  0
 17 18  2  0
 16 18  1  0
 20 21  2  0
M  END
>  <COMPOUND_ID>  (25) 
CMNPD15807

>  <MOLECULAR_FORMULA>  (25) 
C17H20O4

>  <MOLECULAR_WEIGHT>  (25) 
288.343

>  <MOLECULAR_MASS>  (25) 
288.13615912

>  <ALOGP>  (25) 
2.6176000000000013

>  <ROTATABLE_BONDS>  (25) 
3

>  <HBA>  (25) 
4

>  <HBD>  (25) 
1

>  <POLAR_SURFACE_AREA>  (25) 
63.6

>  <AROMATIC_RINGS>  (25) 
1

>  <HEAVY_ATOMS>  (25) 
21

>  <QED_WEIGHTED>  (25) 
0.6857089612536512

>  <BLOOD_BRAIN_BARRIER_PENETRATION>  (25) 
-0.38

>  <BLOOD_BRAIN_BARRIER_PENETRATION_LEVEL>  (25) 
2

>  <HUMAN_INTESTINAL_ABSORPTION_LEVEL>  (25) 
0

>  <AQUEOUS_SOLUBILITY>  (25) 
-3.342

>  <AQUEOUS_SOLUBILITY_LEVEL>  (25) 
3

>  <CYP2D6_BINDING_MODEL>  (25) 
false

>  <HEPATOTOXICITY_MODEL>  (25) 
false

>  <PLASMA_PROTEIN_BINDING_MODEL>  (25) 
true

>  <SMILES>  (25) 
c1cc(c2c(C[C@H](OC(=O)C)[C@]2(O)C)c1C=O)\C=C(\C)/C

>  <STANDARD_INCHI>  (25) 
InChI=1S/C17H20O4/c1-10(2)7-12-5-6-13(9-18)14-8-15(21-11(3)19)17(4,20)16(12)14/h5-7,9,15,20H,8H2,1-4H3/t15-,17+/m0/s1

>  <STANDARD_INCHI_KEY>  (25) 
LDAQYRWFMSRIAZ-DOTOQJQBSA-N

$$$$

     RDKit          2D

 20 21  0  0  1  0  0  0  0  0999 V2000
    5.8260    6.4317    0.0000 C   0  0  0  0  0  0  0  0  0  0  0  0
    6.2390    5.7159    0.0000 C   0  0  0  0  0  0  0  0  0  0  0  0
    7.0650    5.7159    0.0000 C   0  0  0  0  0  0  0  0  0  0  0  0
    5.0000    6.4317    0.0000 Br  0  0  0  0  0  0  0  0  0  0  0  0
    6.2390    7.1476    0.0000 C   0  0  0  0  0  0  0  0  0  0  0  0
    5.5231    7.5606    0.0000 C   0  0  0  0  0  0  0  0  0  0  0  0
    6.2390    7.9461    0.0000 C   0  0  0  0  0  0  0  0  0  0  0  0
    7.0650    7.1476    0.0000 O   0  0  0  0  0  0  0  0  0  0  0  0
    7.4780    6.4317    0.0000 C   0  0  0  0  0  0  0  0  0  0  0  0
    7.8910    5.7159    0.0000 C   0  0  0  0  0  0  0  0  0  0  0  0
    8.3040    6.4317    0.0000 C   0  0  0  0  0  0  0  0  0  0  0  0
    8.7170    7.1476    0.0000 C   0  0  0  0  0  0  0  0  0  0  0  0
    9.5430    7.1476    0.0000 C   0  0  0  0  0  0  0  0  0  0  0  0
    9.9560    6.4317    0.0000 C   0  0  0  0  0  0  0  0  0  0  0  0
   10.6719    6.8447    0.0000 Br  0  0  0  0  0  0  0  0  0  0  0  0
   10.6719    6.0187    0.0000 C   0  0  0  0  0  0  0  0  0  0  0  0
    9.5430    5.7159    0.0000 C   0  0  0  0  0  0  0  0  0  0  0  0
    9.9560    5.0000    0.0000 Cl  0  0  0  0  0  0  0  0  0  0  0  0
    8.7170    5.7159    0.0000 C   0  0  0  0  0  0  0  0  0  0  0  0
    7.4780    5.0000    0.0000 O   0  0  0  0  0  0  0  0  0  0  0  0
  1  2  1  0
  1  4  1  1
  1  5  1  0
  2  3  1  0
  3  9  1  0
  3 20  1  6
  5  6  1  0
  5  7  1  0
  5  8  1  0
  8  9  1  0
  9 10  1  1
  9 11  1  0
 11 12  1  1
 11 19  1  0
 12 13  1  0
 13 14  1  0
 14 15  1  0
 14 16  1  6
 14 17  1  0
 17 18  1  6
 17 19  1  0
M  END
>  <COMPOUND_ID>  (26) 
CMNPD110

>  <MOLECULAR_FORMULA>  (26) 
C15H25Br2ClO2

>  <MOLECULAR_WEIGHT>  (26) 
432.6240000000001

>  <MOLECULAR_MASS>  (26) 
429.99098191999997

>  <ALOGP>  (26) 
4.6295000000000055

>  <ROTATABLE_BONDS>  (26) 
1

>  <HBA>  (26) 
2

>  <HBD>  (26) 
1

>  <POLAR_SURFACE_AREA>  (26) 
29.46

>  <AROMATIC_RINGS>  (26) 
0

>  <HEAVY_ATOMS>  (26) 
20

>  <QED_WEIGHTED>  (26) 
0.6124190047014006

>  <BLOOD_BRAIN_BARRIER_PENETRATION>  (26) 
0.556

>  <BLOOD_BRAIN_BARRIER_PENETRATION_LEVEL>  (26) 
1

>  <HUMAN_INTESTINAL_ABSORPTION_LEVEL>  (26) 
0

>  <AQUEOUS_SOLUBILITY>  (26) 
-4.922

>  <AQUEOUS_SOLUBILITY_LEVEL>  (26) 
2

>  <CYP2D6_BINDING_MODEL>  (26) 
false

>  <HEPATOTOXICITY_MODEL>  (26) 
true

>  <PLASMA_PROTEIN_BINDING_MODEL>  (26) 
true

>  <SMILES>  (26) 
[C@@H]1(C(O[C@@]([C@@H]2C[C@@H](Cl)[C@](C)(Br)CC2)(C)[C@H](O)C1)(C)C)Br

>  <STANDARD_INCHI>  (26) 
InChI=1S/C15H25Br2ClO2/c1-13(2)10(16)8-12(19)15(4,20-13)9-5-6-14(3,17)11(18)7-9/h9-12,19H,5-8H2,1-4H3/t9-,10+,11+,12+,14+,15+/m0/s1

>  <STANDARD_INCHI_KEY>  (26) 
OVZBIWJSECOXAT-RWBGOSSDSA-N

$$$$

     RDKit          2D

 18 20  0  0  1  0  0  0  0  0999 V2000
    6.4885    5.4135    0.0000 C   0  0  0  0  0  0  0  0  0  0  0  0
    7.2328    5.8545    0.0000 C   0  0  0  0  0  0  0  0  0  0  0  0
    7.2328    5.0000    0.0000 C   0  0  0  0  0  0  0  0  0  0  0  0
    5.7443    5.8545    0.0000 C   0  0  0  0  0  0  0  0  0  0  0  0
    5.0000    5.4135    0.0000 O   0  0  0  0  0  0  0  0  0  0  0  0
    5.7443    6.7090    0.0000 C   0  0  0  0  0  0  0  0  0  0  0  0
    6.4885    7.1501    0.0000 C   0  0  0  0  0  0  0  0  0  0  0  0
    6.0475    7.8392    0.0000 C   0  0  0  0  0  0  0  0  0  0  0  0
    6.9296    7.8392    0.0000 C   0  0  0  0  0  0  0  0  0  0  0  0
    7.2328    6.7090    0.0000 C   0  0  0  0  0  0  0  0  0  0  0  0
    7.9770    7.1501    0.0000 C   0  0  0  0  0  0  0  0  0  0  0  0
    8.7213    6.7090    0.0000 C   0  0  0  0  0  0  0  0  0  0  0  0
    8.7213    5.8545    0.0000 C   0  0  0  0  0  0  0  0  0  0  0  0
    9.4655    5.4135    0.0000 C   0  0  0  0  0  0  0  0  0  0  0  0
    7.9770    5.4135    0.0000 O   0  0  0  0  0  0  0  0  0  0  0  0
    8.4456    6.4334    0.0000 C   0  0  0  0  0  0  0  0  0  0  0  0
    7.8668    6.7366    0.0000 C   0  0  0  0  0  0  0  0  0  0  0  0
    9.4655    7.1501    0.0000 Cl  0  0  0  0  0  0  0  0  0  0  0  0
  1  2  1  0
  1  4  1  0
  2  3  1  1
  2 10  1  0
  2 15  1  0
  4  5  2  0
  4  6  1  0
  6  7  1  0
  7  8  1  0
  7  9  1  0
 10  7  1  1
 10 11  1  0
 10 17  1  0
 11 12  1  0
 12 13  1  0
 12 18  1  6
 13 14  1  1
 13 15  1  0
 13 16  1  0
 16 17  1  0
M  END
>  <COMPOUND_ID>  (27) 
CMNPD2631

>  <MOLECULAR_FORMULA>  (27) 
C15H23ClO2

>  <MOLECULAR_WEIGHT>  (27) 
270.79999999999995

>  <MOLECULAR_MASS>  (27) 
270.138657656

>  <ALOGP>  (27) 
3.7008000000000028

>  <ROTATABLE_BONDS>  (27) 
0

>  <HBA>  (27) 
2

>  <HBD>  (27) 
0

>  <POLAR_SURFACE_AREA>  (27) 
26.3

>  <AROMATIC_RINGS>  (27) 
0

>  <HEAVY_ATOMS>  (27) 
18

>  <QED_WEIGHTED>  (27) 
0.6275806091910325

>  <BLOOD_BRAIN_BARRIER_PENETRATION>  (27) 
0.184

>  <BLOOD_BRAIN_BARRIER_PENETRATION_LEVEL>  (27) 
1

>  <HUMAN_INTESTINAL_ABSORPTION_LEVEL>  (27) 
0

>  <AQUEOUS_SOLUBILITY>  (27) 
-4.319

>  <AQUEOUS_SOLUBILITY_LEVEL>  (27) 
2

>  <CYP2D6_BINDING_MODEL>  (27) 
false

>  <HEPATOTOXICITY_MODEL>  (27) 
true

>  <PLASMA_PROTEIN_BINDING_MODEL>  (27) 
true

>  <SMILES>  (27) 
C1C(CC([C@@]23CC[C@](O[C@]12C)(C)[C@@H](Cl)C3)(C)C)=O

>  <STANDARD_INCHI>  (27) 
InChI=1S/C15H23ClO2/c1-12(2)7-10(17)8-14(4)15(12)6-5-13(3,18-14)11(16)9-15/h11H,5-9H2,1-4H3/t11-,13+,14+,15-/m0/s1

>  <STANDARD_INCHI_KEY>  (27) 
NDZAVQHKUNPCET-MYPMTAMASA-N

$$$$

     RDKit          2D

 19 20  0  0  1  0  0  0  0  0999 V2000
   10.1675    6.5668    0.0000 C   0  0  0  0  0  0  0  0  0  0  0  0
    9.4254    6.8691    0.0000 C   0  0  0  0  0  0  0  0  0  0  0  0
    8.8207    6.3469    0.0000 C   0  0  0  0  0  0  0  0  0  0  0  0
    8.0510    6.6217    0.0000 C   0  0  0  0  0  0  0  0  0  0  0  0
    6.0720    6.2919    0.0000 C   0  0  0  0  0  0  0  0  0  0  0  0
    5.4398    5.7971    0.0000 C   0  0  0  0  0  0  0  0  0  0  0  0
    5.5772    5.0000    0.0000 C   0  0  0  0  0  0  0  0  0  0  0  0
    5.7971    7.0615    0.0000 C   0  0  0  0  0  0  0  0  0  0  0  0
    6.0995    7.7762    0.0000 C   0  0  0  0  0  0  0  0  0  0  0  0
    6.7592    8.1885    0.0000 C   0  0  0  0  0  0  0  0  0  0  0  0
    7.5563    8.0236    0.0000 C   0  0  0  0  0  0  0  0  0  0  0  0
    7.1165    7.1165    0.0000 C   0  0  0  0  0  0  0  0  0  0  0  0
    7.5288    6.0170    0.0000 C   0  0  0  0  0  0  0  0  0  0  0  0
    6.7592    5.8796    0.0000 O   0  0  0  0  0  0  0  0  0  0  0  0
    6.6217    8.9306    0.0000 O   0  0  0  0  0  0  0  0  0  0  0  0
    8.0510    7.4188    0.0000 O   0  0  0  0  0  0  0  0  0  0  0  0
    5.0000    7.0615    0.0000 O   0  0  0  0  0  0  0  0  0  0  0  0
   10.3050    5.7971    0.0000 C   0  0  0  0  0  0  0  0  0  0  0  0
   10.4424    5.0000    0.0000 C   0  0  0  0  0  0  0  0  0  0  0  0
  1  2  2  0
  2  3  1  0
  4  3  1  6
  4 13  1  0
  4 16  1  0
  5  6  1  1
  5  8  1  0
  5 14  1  0
  6  7  1  0
  8  9  1  0
  8 17  1  6
  9 10  1  0
 10 11  1  0
 10 15  1  6
 11 12  1  0
 11 16  1  6
 13 12  1  0
 13 14  1  6
  1 18  1  0
 18 19  3  0
M  END
>  <COMPOUND_ID>  (28) 
CMNPD19979

>  <MOLECULAR_FORMULA>  (28) 
C15H22O4

>  <MOLECULAR_WEIGHT>  (28) 
266.337

>  <MOLECULAR_MASS>  (28) 
266.151809184

>  <ALOGP>  (28) 
1.0126999999999997

>  <ROTATABLE_BONDS>  (28) 
3

>  <HBA>  (28) 
4

>  <HBD>  (28) 
2

>  <POLAR_SURFACE_AREA>  (28) 
58.92

>  <AROMATIC_RINGS>  (28) 
0

>  <HEAVY_ATOMS>  (28) 
19

>  <QED_WEIGHTED>  (28) 
0.7486334141011693

>  <BLOOD_BRAIN_BARRIER_PENETRATION>  (28) 
-0.592

>  <BLOOD_BRAIN_BARRIER_PENETRATION_LEVEL>  (28) 
3

>  <HUMAN_INTESTINAL_ABSORPTION_LEVEL>  (28) 
0

>  <AQUEOUS_SOLUBILITY>  (28) 
-1.84

>  <AQUEOUS_SOLUBILITY_LEVEL>  (28) 
4

>  <CYP2D6_BINDING_MODEL>  (28) 
false

>  <HEPATOTOXICITY_MODEL>  (28) 
true

>  <PLASMA_PROTEIN_BINDING_MODEL>  (28) 
true

>  <SMILES>  (28) 
C(/C#C)=C/C[C@H]1O[C@H](C[C@H]1O[C@H]2CC)[C@@H](O)C[C@H]2O

>  <STANDARD_INCHI>  (28) 
InChI=1S/C15H22O4/c1-3-5-6-7-13-15-9-14(19-13)11(17)8-10(16)12(4-2)18-15/h1,5-6,10-17H,4,7-9H2,2H3/b6-5-/t10-,11+,12+,13-,14-,15-/m1/s1

>  <STANDARD_INCHI_KEY>  (28) 
UVRUJKKJLZZAJL-WEIRLIPGSA-N

$$$$

     RDKit          2D

 17 17  0  0  1  0  0  0  0  0999 V2000
    7.2630    6.6559    0.0000 C   0  0  0  0  0  0  0  0  0  0  0  0
    7.9806    6.2419    0.0000 C   0  0  0  0  0  0  0  0  0  0  0  0
    7.9806    5.4140    0.0000 C   0  0  0  0  0  0  0  0  0  0  0  0
    6.5179    6.2419    0.0000 C   0  0  0  0  0  0  0  0  0  0  0  0
    5.8003    6.6559    0.0000 C   0  0  0  0  0  0  0  0  0  0  0  0
    5.3864    5.9383    0.0000 O   0  0  0  0  0  0  0  0  0  0  0  0
    5.0000    6.6559    0.0000 C   0  0  0  0  0  0  0  0  0  0  0  0
    5.8003    7.4838    0.0000 C   0  0  0  0  0  0  0  0  0  0  0  0
    6.5179    7.8978    0.0000 C   0  0  0  0  0  0  0  0  0  0  0  0
    7.2354    7.4838    0.0000 C   0  0  0  0  0  0  0  0  0  0  0  0
    7.9530    7.8978    0.0000 C   0  0  0  0  0  0  0  0  0  0  0  0
    7.9530    8.6981    0.0000 C   0  0  0  0  0  0  0  0  0  0  0  0
    8.6705    7.4838    0.0000 C   0  0  0  0  0  0  0  0  0  0  0  0
    8.6705    6.6559    0.0000 C   0  0  0  0  0  0  0  0  0  0  0  0
    8.6981    5.0000    0.0000 C   0  0  0  0  0  0  0  0  0  0  0  0
    7.2630    5.0000    0.0000 C   0  0  0  0  0  0  0  0  0  0  0  0
    7.2354    8.3117    0.0000 O   0  0  0  0  0  0  0  0  0  0  0  0
  1  2  1  0
  1  4  2  0
  2  3  1  0
  2 14  1  0
  4  5  1  0
  5  6  1  0
  5  7  1  1
  5  8  1  0
  8  9  1  0
  9 10  1  0
 10 11  1  0
 11 12  2  0
 11 13  1  0
 13 14  1  0
  3 15  1  0
  3 16  1  0
 10 17  1  0
M  END
>  <COMPOUND_ID>  (29) 
CMNPD119

>  <MOLECULAR_FORMULA>  (29) 
C15H26O2

>  <MOLECULAR_WEIGHT>  (29) 
238.37099999999995

>  <MOLECULAR_MASS>  (29) 
238.193280072

>  <ALOGP>  (29) 
3.056900000000002

>  <ROTATABLE_BONDS>  (29) 
1

>  <HBA>  (29) 
2

>  <HBD>  (29) 
2

>  <POLAR_SURFACE_AREA>  (29) 
40.46

>  <AROMATIC_RINGS>  (29) 
0

>  <HEAVY_ATOMS>  (29) 
17

>  <QED_WEIGHTED>  (29) 
0.6892755531355366

>  <BLOOD_BRAIN_BARRIER_PENETRATION>  (29) 
0.156

>  <BLOOD_BRAIN_BARRIER_PENETRATION_LEVEL>  (29) 
1

>  <HUMAN_INTESTINAL_ABSORPTION_LEVEL>  (29) 
0

>  <AQUEOUS_SOLUBILITY>  (29) 
-2.935

>  <AQUEOUS_SOLUBILITY_LEVEL>  (29) 
3

>  <CYP2D6_BINDING_MODEL>  (29) 
false

>  <HEPATOTOXICITY_MODEL>  (29) 
false

>  <PLASMA_PROTEIN_BINDING_MODEL>  (29) 
true

>  <SMILES>  (29) 
C(=C\[C@](CCC(O)C(CC1)=C)(C)O)/C1C(C)C

>  <STANDARD_INCHI>  (29) 
InChI=1S/C15H26O2/c1-11(2)13-6-5-12(3)14(16)8-10-15(4,17)9-7-13/h7,9,11,13-14,16-17H,3,5-6,8,10H2,1-2,4H3/b9-7+/t13?,14?,15-/m0/s1

>  <STANDARD_INCHI_KEY>  (29) 
NSIOXFVMCTYIOU-PPUMCWHFSA-N

$$$$

     RDKit          2D

 19 20  0  0  1  0  0  0  0  0999 V2000
    5.7165    6.6534    0.0000 C   0  0  0  0  0  0  0  0  0  0  0  0
    6.4329    6.2400    0.0000 C   0  0  0  0  0  0  0  0  0  0  0  0
    5.7165    7.4801    0.0000 C   0  0  0  0  0  0  0  0  0  0  0  0
    6.4329    7.8934    0.0000 C   0  0  0  0  0  0  0  0  0  0  0  0
    6.4329    8.7201    0.0000 C   0  0  0  0  0  0  0  0  0  0  0  0
    5.7165    9.1335    0.0000 C   0  0  0  0  0  0  0  0  0  0  0  0
    5.0000    8.7201    0.0000 C   0  0  0  0  0  0  0  0  0  0  0  0
    5.7165    9.9326    0.0000 C   0  0  0  0  0  0  0  0  0  0  0  0
    7.1494    7.4801    0.0000 C   0  0  0  0  0  0  0  0  0  0  0  0
    7.9210    7.7281    0.0000 C   0  0  0  0  0  0  0  0  0  0  0  0
    7.7556    8.5272    0.0000 C   0  0  0  0  0  0  0  0  0  0  0  0
    8.4170    7.0667    0.0000 C   0  0  0  0  0  0  0  0  0  0  0  0
    7.9210    6.3778    0.0000 C   0  0  0  0  0  0  0  0  0  0  0  0
    7.1494    6.6534    0.0000 C   0  0  0  0  0  0  0  0  0  0  0  0
    9.2437    7.0667    0.0000 O   0  0  0  0  0  0  0  0  0  0  0  0
    8.5548    8.2792    0.0000 O   0  0  0  0  0  0  0  0  0  0  0  0
    8.3894    9.0783    0.0000 C   0  0  0  0  0  0  0  0  0  0  0  0
    6.4329    5.4133    0.0000 C   0  0  0  0  0  0  0  0  0  0  0  0
    5.7165    5.0000    0.0000 O   0  0  0  0  0  0  0  0  0  0  0  0
  1  2  2  0
  1  3  1  0
  2 18  1  0
  2 14  1  0
  3  4  2  0
  4  5  1  0
  4  9  1  0
  5  6  2  0
  6  7  1  0
  6  8  1  0
  9 10  1  0
  9 14  2  0
 10 11  1  1
 10 12  1  0
 10 16  1  0
 12 15  1  1
 12 13  1  0
 13 14  1  0
 16 17  1  0
 18 19  2  0
M  END
>  <COMPOUND_ID>  (30) 
CMNPD15808

>  <MOLECULAR_FORMULA>  (30) 
C16H20O3

>  <MOLECULAR_WEIGHT>  (30) 
260.33299999999997

>  <MOLECULAR_MASS>  (30) 
260.1412445

>  <ALOGP>  (30) 
2.7009000000000007

>  <ROTATABLE_BONDS>  (30) 
3

>  <HBA>  (30) 
3

>  <HBD>  (30) 
1

>  <POLAR_SURFACE_AREA>  (30) 
46.53

>  <AROMATIC_RINGS>  (30) 
1

>  <HEAVY_ATOMS>  (30) 
19

>  <QED_WEIGHTED>  (30) 
0.8499270555851721

>  <BLOOD_BRAIN_BARRIER_PENETRATION>  (30) 
-9.8e-002

>  <BLOOD_BRAIN_BARRIER_PENETRATION_LEVEL>  (30) 
2

>  <HUMAN_INTESTINAL_ABSORPTION_LEVEL>  (30) 
0

>  <AQUEOUS_SOLUBILITY>  (30) 
-3.29

>  <AQUEOUS_SOLUBILITY_LEVEL>  (30) 
3

>  <CYP2D6_BINDING_MODEL>  (30) 
false

>  <HEPATOTOXICITY_MODEL>  (30) 
false

>  <PLASMA_PROTEIN_BINDING_MODEL>  (30) 
true

>  <SMILES>  (30) 
c1cc(c2c(C[C@H](O)[C@]2(OC)C)c1C=O)\C=C(\C)/C

>  <STANDARD_INCHI>  (30) 
InChI=1S/C16H20O3/c1-10(2)7-11-5-6-12(9-17)13-8-14(18)16(3,19-4)15(11)13/h5-7,9,14,18H,8H2,1-4H3/t14-,16+/m0/s1

>  <STANDARD_INCHI_KEY>  (30) 
KMSQYTBBXIHDHE-GOEBONIOSA-N

$$$$

     RDKit          2D

 19 21  0  0  1  0  0  0  0  0999 V2000
    5.4135    7.8392    0.0000 C   0  0  0  0  0  0  0  0  0  0  0  0
    6.2129    8.0598    0.0000 C   0  0  0  0  0  0  0  0  0  0  0  0
    7.0123    7.8392    0.0000 C   0  0  0  0  0  0  0  0  0  0  0  0
    5.0000    7.1501    0.0000 C   0  0  0  0  0  0  0  0  0  0  0  0
    5.7994    7.3431    0.0000 C   0  0  0  0  0  0  0  0  0  0  0  0
    6.5988    7.1501    0.0000 C   0  0  0  0  0  0  0  0  0  0  0  0
    5.7718    8.4732    0.0000 O   0  0  0  0  0  0  0  0  0  0  0  0
    5.4135    6.4334    0.0000 O   0  0  0  0  0  0  0  0  0  0  0  0
    6.2404    6.4334    0.0000 C   0  0  0  0  0  0  0  0  0  0  0  0
    6.6815    5.7167    0.0000 C   0  0  0  0  0  0  0  0  0  0  0  0
    7.4809    5.7443    0.0000 C   0  0  0  0  0  0  0  0  0  0  0  0
    6.2680    5.0000    0.0000 Br  0  0  0  0  0  0  0  0  0  0  0  0
    7.7565    8.1700    0.0000 C   0  0  0  0  0  0  0  0  0  0  0  0
    7.8668    8.9970    0.0000 Cl  0  0  0  0  0  0  0  0  0  0  0  0
    8.4181    7.6739    0.0000 C   0  0  0  0  0  0  0  0  0  0  0  0
    9.2451    7.6739    0.0000 C   0  0  0  0  0  0  0  0  0  0  0  0
    9.6586    8.3906    0.0000 C   0  0  0  0  0  0  0  0  0  0  0  0
   10.0720    9.0797    0.0000 C   0  0  0  0  0  0  0  0  0  0  0  0
    7.8944    6.4610    0.0000 C   0  0  0  0  0  0  0  0  0  0  0  0
  2  1  1  1
  4  1  1  6
  2  3  1  0
  2  7  1  0
  3  6  1  0
  3 13  1  1
  4  5  1  0
  4  8  1  0
  5  6  1  0
  5  7  1  1
  6  9  1  6
  8  9  1  0
  9 10  2  0
 10 11  1  0
 10 12  1  0
 11 19  1  0
 13 14  1  6
 13 15  1  0
 15 16  2  0
 16 17  1  0
 17 18  3  0
M  END
>  <COMPOUND_ID>  (31) 
CMNPD29308

>  <MOLECULAR_FORMULA>  (31) 
C15H16BrClO2

>  <MOLECULAR_WEIGHT>  (31) 
343.648

>  <MOLECULAR_MASS>  (31) 
342.002219532

>  <ALOGP>  (31) 
3.602000000000003

>  <ROTATABLE_BONDS>  (31) 
3

>  <HBA>  (31) 
2

>  <HBD>  (31) 
0

>  <POLAR_SURFACE_AREA>  (31) 
18.46

>  <AROMATIC_RINGS>  (31) 
0

>  <HEAVY_ATOMS>  (31) 
19

>  <QED_WEIGHTED>  (31) 
0.5756474513452878

>  <BLOOD_BRAIN_BARRIER_PENETRATION>  (31) 
0.617

>  <BLOOD_BRAIN_BARRIER_PENETRATION_LEVEL>  (31) 
1

>  <HUMAN_INTESTINAL_ABSORPTION_LEVEL>  (31) 
0

>  <AQUEOUS_SOLUBILITY>  (31) 
-4.511

>  <AQUEOUS_SOLUBILITY_LEVEL>  (31) 
2

>  <CYP2D6_BINDING_MODEL>  (31) 
false

>  <HEPATOTOXICITY_MODEL>  (31) 
true

>  <PLASMA_PROTEIN_BINDING_MODEL>  (31) 
true

>  <SMILES>  (31) 
C1[C@@H]2[C@@H](O[C@H]13)[C@@H](\C(=C(\Br)/CC)\O2)[C@]3([H])[C@@H](\C=C/C#C)Cl

>  <STANDARD_INCHI>  (31) 
InChI=1S/C15H16BrClO2/c1-3-5-6-9(17)12-10-7-11-15(18-10)13(12)14(19-11)8(16)4-2/h1,5-6,9-13,15H,4,7H2,2H3/b6-5-,14-8-/t9-,10-,11-,12-,13-,15-/m1/s1

>  <STANDARD_INCHI_KEY>  (31) 
AYFFHUILZXJDLN-PPZQIILRSA-N

$$$$

     RDKit          2D

 19 22  0  0  1  0  0  0  0  0999 V2000
    5.0000    7.7695    0.0000 C   0  0  0  0  0  0  0  0  0  0  0  0
    5.0000    7.0017    0.0000 C   0  0  0  0  0  0  0  0  0  0  0  0
    5.6581    6.6178    0.0000 C   0  0  0  0  0  0  0  0  0  0  0  0
    6.3162    7.0017    0.0000 C   0  0  0  0  0  0  0  0  0  0  0  0
    6.3162    7.7695    0.0000 C   0  0  0  0  0  0  0  0  0  0  0  0
    5.6581    8.1534    0.0000 C   0  0  0  0  0  0  0  0  0  0  0  0
    6.0420    7.4953    0.0000 O   0  0  0  0  0  0  0  0  0  0  0  0
    5.0000    6.2339    0.0000 O   0  0  0  0  0  0  0  0  0  0  0  0
    6.5082    6.2888    0.0000 C   0  0  0  0  0  0  0  0  0  0  0  0
    7.2759    7.5502    0.0000 C   0  0  0  0  0  0  0  0  0  0  0  0
    7.2759    6.4259    0.0000 O   0  0  0  0  0  0  0  0  0  0  0  0
    7.8792    8.0437    0.0000 C   0  0  0  0  0  0  0  0  0  0  0  0
    7.7695    8.7841    0.0000 C   0  0  0  0  0  0  0  0  0  0  0  0
    7.0566    9.0857    0.0000 C   0  0  0  0  0  0  0  0  0  0  0  0
    6.3436    9.3325    0.0000 C   0  0  0  0  0  0  0  0  0  0  0  0
    6.7001    5.5484    0.0000 C   0  0  0  0  0  0  0  0  0  0  0  0
    7.4405    5.3565    0.0000 C   0  0  0  0  0  0  0  0  0  0  0  0
    7.9615    5.9049    0.0000 C   0  0  0  0  0  0  0  0  0  0  0  0
    6.1517    5.0000    0.0000 O   0  0  0  0  0  0  0  0  0  0  0  0
  2  1  1  1
  6  1  1  1
  2  3  1  0
  2  8  1  0
  3  4  1  0
  3  7  1  6
  4  5  1  0
  4  9  1  1
  5  6  1  0
  5 10  1  1
  6  7  1  0
  8  9  1  0
  9 11  1  0
  9 16  1  1
 10 11  1  0
 10 12  1  1
 12 13  2  0
 13 14  1  0
 14 15  3  0
 16 17  1  0
 16 19  2  0
 17 18  1  0
M  END
>  <COMPOUND_ID>  (32) 
CMNPD29286

>  <MOLECULAR_FORMULA>  (32) 
C15H16O4

>  <MOLECULAR_WEIGHT>  (32) 
260.289

>  <MOLECULAR_MASS>  (32) 
260.104858992

>  <ALOGP>  (32) 
1.0523

>  <ROTATABLE_BONDS>  (32) 
3

>  <HBA>  (32) 
4

>  <HBD>  (32) 
0

>  <POLAR_SURFACE_AREA>  (32) 
44.760000000000005

>  <AROMATIC_RINGS>  (32) 
0

>  <HEAVY_ATOMS>  (32) 
19

>  <QED_WEIGHTED>  (32) 
0.7115701117188356

>  <BLOOD_BRAIN_BARRIER_PENETRATION>  (32) 
-0.371

>  <BLOOD_BRAIN_BARRIER_PENETRATION_LEVEL>  (32) 
2

>  <HUMAN_INTESTINAL_ABSORPTION_LEVEL>  (32) 
0

>  <AQUEOUS_SOLUBILITY>  (32) 
-3.144

>  <AQUEOUS_SOLUBILITY_LEVEL>  (32) 
3

>  <CYP2D6_BINDING_MODEL>  (32) 
false

>  <HEPATOTOXICITY_MODEL>  (32) 
false

>  <PLASMA_PROTEIN_BINDING_MODEL>  (32) 
true

>  <SMILES>  (32) 
C1[C@@H]2O[C@@H]([C@]([H])([C@](C(=O)CC)(O[C@@H]3\C=C/C#C)O4)[C@@]23[H])[C@H]14

>  <STANDARD_INCHI>  (32) 
InChI=1S/C15H16O4/c1-3-5-6-8-12-9-7-10-14(17-9)13(12)15(18-8,19-10)11(16)4-2/h1,5-6,8-10,12-14H,4,7H2,2H3/b6-5-/t8-,9+,10+,12-,13-,14-,15-/m1/s1

>  <STANDARD_INCHI_KEY>  (32) 
GIVXFSXSWUSARE-SSJIMSJVSA-N

$$$$

     RDKit          2D

 19 20  0  0  1  0  0  0  0  0999 V2000
   10.0104    7.0647    0.0000 C   0  0  0  0  0  0  0  0  0  0  0  0
   10.7262    6.6518    0.0000 C   0  0  0  0  0  0  0  0  0  0  0  0
   11.4420    7.0647    0.0000 C   0  0  0  0  0  0  0  0  0  0  0  0
    9.2947    6.6518    0.0000 C   0  0  0  0  0  0  0  0  0  0  0  0
    6.4316    5.8259    0.0000 C   0  0  0  0  0  0  0  0  0  0  0  0
    7.8631    6.6518    0.0000 C   0  0  0  0  0  0  0  0  0  0  0  0
    7.8631    5.8259    0.0000 C   0  0  0  0  0  0  0  0  0  0  0  0
    7.1473    5.4129    0.0000 O   0  0  0  0  0  0  0  0  0  0  0  0
    7.1473    7.0647    0.0000 C   0  0  0  0  0  0  0  0  0  0  0  0
    6.4316    6.6518    0.0000 C   0  0  0  0  0  0  0  0  0  0  0  0
    8.5789    7.0647    0.0000 O   0  0  0  0  0  0  0  0  0  0  0  0
    8.5789    5.4129    0.0000 C   0  0  0  0  0  0  0  0  0  0  0  0
    9.2947    5.8259    0.0000 C   0  0  0  0  0  0  0  0  0  0  0  0
    5.7158    7.0647    0.0000 O   0  0  0  0  0  0  0  0  0  0  0  0
   10.0104    5.4129    0.0000 Cl  0  0  0  0  0  0  0  0  0  0  0  0
   12.1578    6.6518    0.0000 C   0  0  0  0  0  0  0  0  0  0  0  0
   12.8736    6.2388    0.0000 C   0  0  0  0  0  0  0  0  0  0  0  0
    5.7158    5.4129    0.0000 C   0  0  0  0  0  0  0  0  0  0  0  0
    5.0000    5.8259    0.0000 C   0  0  0  0  0  0  0  0  0  0  0  0
  1  2  1  0
  4  1  1  6
  2  3  2  0
  3 16  1  0
  4 13  1  0
  4 11  1  0
  5 10  1  0
  5  8  1  0
  6  7  1  0
  6  9  1  6
 11  6  1  0
  7  8  1  0
  7 12  1  6
  9 10  1  0
 10 14  1  6
 12 13  1  0
 13 15  1  6
 16 17  3  0
  5 18  1  6
 18 19  1  0
M  END
>  <COMPOUND_ID>  (33) 
CMNPD5962

>  <MOLECULAR_FORMULA>  (33) 
C15H21ClO3

>  <MOLECULAR_WEIGHT>  (33) 
284.783

>  <MOLECULAR_MASS>  (33) 
284.11792221200005

>  <ALOGP>  (33) 
2.2592

>  <ROTATABLE_BONDS>  (33) 
3

>  <HBA>  (33) 
3

>  <HBD>  (33) 
1

>  <POLAR_SURFACE_AREA>  (33) 
38.69

>  <AROMATIC_RINGS>  (33) 
0

>  <HEAVY_ATOMS>  (33) 
19

>  <QED_WEIGHTED>  (33) 
0.6381646437315713

>  <BLOOD_BRAIN_BARRIER_PENETRATION>  (33) 
0.11

>  <BLOOD_BRAIN_BARRIER_PENETRATION_LEVEL>  (33) 
1

>  <HUMAN_INTESTINAL_ABSORPTION_LEVEL>  (33) 
0

>  <AQUEOUS_SOLUBILITY>  (33) 
-3.312

>  <AQUEOUS_SOLUBILITY_LEVEL>  (33) 
3

>  <CYP2D6_BINDING_MODEL>  (33) 
false

>  <HEPATOTOXICITY_MODEL>  (33) 
true

>  <PLASMA_PROTEIN_BINDING_MODEL>  (33) 
true

>  <SMILES>  (33) 
C([C@H]1O[C@@]([H])(C[C@H]2O)[C@]([H])(C[C@H]1Cl)O[C@@H]2CC)\C=C\C#C

>  <STANDARD_INCHI>  (33) 
InChI=1S/C15H21ClO3/c1-3-5-6-7-13-10(16)8-14-15(19-13)9-11(17)12(4-2)18-14/h1,5-6,10-15,17H,4,7-9H2,2H3/b6-5+/t10-,11-,12-,13-,14+,15+/m1/s1

>  <STANDARD_INCHI_KEY>  (33) 
URMGBARBBKFJOZ-JAIANVFDSA-N

$$$$

     RDKit          2D

 15 15  0  0  1  0  0  0  0  0999 V2000
    7.2564    6.1282    0.0000 C   0  0  0  0  0  0  0  0  0  0  0  0
    7.9718    5.7154    0.0000 C   0  0  0  0  0  0  0  0  0  0  0  0
    6.5410    5.7430    0.0000 O   0  0  0  0  0  0  0  0  0  0  0  0
    7.2564    6.9537    0.0000 C   0  0  0  0  0  0  0  0  0  0  0  0
    6.5410    7.3665    0.0000 C   0  0  0  0  0  0  0  0  0  0  0  0
    5.8255    6.9812    0.0000 C   0  0  0  0  0  0  0  0  0  0  0  0
    5.8255    6.1282    0.0000 C   0  0  0  0  0  0  0  0  0  0  0  0
    5.0000    6.9812    0.0000 O   0  0  0  0  0  0  0  0  0  0  0  0
    8.6873    6.1282    0.0000 C   0  0  0  0  0  0  0  0  0  0  0  0
    9.4027    5.7154    0.0000 C   0  0  0  0  0  0  0  0  0  0  0  0
   10.1182    6.1282    0.0000 Cl  0  0  0  0  0  0  0  0  0  0  0  0
    6.5410    8.1920    0.0000 Br  0  0  0  0  0  0  0  0  0  0  0  0
    5.4128    7.6967    0.0000 C   0  0  0  0  0  0  0  0  0  0  0  0
    8.3846    5.0000    0.0000 O   0  0  0  0  0  0  0  0  0  0  0  0
    7.5591    5.0000    0.0000 C   0  0  0  0  0  0  0  0  0  0  0  0
  1  2  1  0
  1  3  1  0
  1  4  1  1
  2 15  1  1
  2  9  1  0
  2 14  1  0
  3  7  1  0
  4  5  1  0
  5  6  1  0
  5 12  1  6
  6  7  1  0
  6  8  1  0
  9 10  2  0
 10 11  1  0
  6 13  1  6
M  END
>  <COMPOUND_ID>  (34) 
CMNPD9514

>  <MOLECULAR_FORMULA>  (34) 
C10H16BrClO3

>  <MOLECULAR_WEIGHT>  (34) 
299.59200000000004

>  <MOLECULAR_MASS>  (34) 
297.997134152

>  <ALOGP>  (34) 
1.7932999999999997

>  <ROTATABLE_BONDS>  (34) 
2

>  <HBA>  (34) 
3

>  <HBD>  (34) 
2

>  <POLAR_SURFACE_AREA>  (34) 
49.69

>  <AROMATIC_RINGS>  (34) 
0

>  <HEAVY_ATOMS>  (34) 
15

>  <QED_WEIGHTED>  (34) 
0.7644845041861573

>  <BLOOD_BRAIN_BARRIER_PENETRATION>  (34) 
-0.689

>  <BLOOD_BRAIN_BARRIER_PENETRATION_LEVEL>  (34) 
3

>  <HUMAN_INTESTINAL_ABSORPTION_LEVEL>  (34) 
0

>  <AQUEOUS_SOLUBILITY>  (34) 
-1.302

>  <AQUEOUS_SOLUBILITY_LEVEL>  (34) 
4

>  <CYP2D6_BINDING_MODEL>  (34) 
false

>  <HEPATOTOXICITY_MODEL>  (34) 
true

>  <PLASMA_PROTEIN_BINDING_MODEL>  (34) 
false

>  <SMILES>  (34) 
[C@H]1(C[C@@H](Br)[C@](C)(O)CO1)[C@@](O)(\C=C\Cl)C

>  <STANDARD_INCHI>  (34) 
InChI=1S/C10H16BrClO3/c1-9(13,3-4-12)8-5-7(11)10(2,14)6-15-8/h3-4,7-8,13-14H,5-6H2,1-2H3/b4-3+/t7-,8+,9+,10-/m1/s1

>  <STANDARD_INCHI_KEY>  (34) 
CXSUPLDYPUBCTI-QRSKOWNHSA-N

$$$$

     RDKit          2D

 20 22  0  0  1  0  0  0  0  0999 V2000
    7.1186    6.1556    0.0000 C   0  0  0  0  0  0  0  0  0  0  0  0
    7.8065    6.5683    0.0000 C   0  0  0  0  0  0  0  0  0  0  0  0
    7.8065    5.7704    0.0000 C   0  0  0  0  0  0  0  0  0  0  0  0
    6.7334    5.4677    0.0000 C   0  0  0  0  0  0  0  0  0  0  0  0
    6.4308    6.5683    0.0000 C   0  0  0  0  0  0  0  0  0  0  0  0
    5.7429    6.1556    0.0000 O   0  0  0  0  0  0  0  0  0  0  0  0
    6.4308    7.3662    0.0000 C   0  0  0  0  0  0  0  0  0  0  0  0
    7.1186    7.7515    0.0000 C   0  0  0  0  0  0  0  0  0  0  0  0
    7.0911    8.4943    0.0000 Br  0  0  0  0  0  0  0  0  0  0  0  0
    7.8065    7.3662    0.0000 C   0  0  0  0  0  0  0  0  0  0  0  0
    7.8065    8.1367    0.0000 C   0  0  0  0  0  0  0  0  0  0  0  0
    8.4943    7.7515    0.0000 C   0  0  0  0  0  0  0  0  0  0  0  0
    8.4668    6.9535    0.0000 C   0  0  0  0  0  0  0  0  0  0  0  0
    9.1547    6.5683    0.0000 C   0  0  0  0  0  0  0  0  0  0  0  0
    9.1547    5.7704    0.0000 C   0  0  0  0  0  0  0  0  0  0  0  0
    9.8701    5.3852    0.0000 C   0  0  0  0  0  0  0  0  0  0  0  0
    8.4668    5.3852    0.0000 C   0  0  0  0  0  0  0  0  0  0  0  0
    7.3938    5.0000    0.0000 O   0  0  0  0  0  0  0  0  0  0  0  0
    9.8426    6.1556    0.0000 Cl  0  0  0  0  0  0  0  0  0  0  0  0
    5.0000    6.5683    0.0000 C   0  0  0  0  0  0  0  0  0  0  0  0
  1  2  1  0
  1  4  1  1
  1  5  1  0
  1 18  1  0
  2  3  1  0
  2 10  1  0
  2 13  1  6
  3 17  1  0
  5  6  1  1
  5  7  1  0
  7  8  2  0
  8  9  1  0
  8 10  1  0
 10 11  1  0
 10 12  1  0
 13 14  1  0
 14 15  1  0
 15 16  1  1
 15 17  1  0
 15 19  1  0
 17 18  1  6
  6 20  1  0
M  END
>  <COMPOUND_ID>  (35) 
CMNPD21127

>  <MOLECULAR_FORMULA>  (35) 
C16H24BrClO2

>  <MOLECULAR_WEIGHT>  (35) 
363.723

>  <MOLECULAR_MASS>  (35) 
362.06481978799997

>  <ALOGP>  (35) 
4.645300000000004

>  <ROTATABLE_BONDS>  (35) 
1

>  <HBA>  (35) 
2

>  <HBD>  (35) 
0

>  <POLAR_SURFACE_AREA>  (35) 
18.46

>  <AROMATIC_RINGS>  (35) 
0

>  <HEAVY_ATOMS>  (35) 
20

>  <QED_WEIGHTED>  (35) 
0.6315684367035242

>  <BLOOD_BRAIN_BARRIER_PENETRATION>  (35) 
0.586

>  <BLOOD_BRAIN_BARRIER_PENETRATION_LEVEL>  (35) 
1

>  <HUMAN_INTESTINAL_ABSORPTION_LEVEL>  (35) 
0

>  <AQUEOUS_SOLUBILITY>  (35) 
-5.13

>  <AQUEOUS_SOLUBILITY_LEVEL>  (35) 
2

>  <CYP2D6_BINDING_MODEL>  (35) 
false

>  <HEPATOTOXICITY_MODEL>  (35) 
true

>  <PLASMA_PROTEIN_BINDING_MODEL>  (35) 
true

>  <SMILES>  (35) 
[C@]12(C)[C@@]3(C(C)(C)C(Br)=C[C@@H]1OC)C[C@@H](O2)[C@](Cl)(C)CC3

>  <STANDARD_INCHI>  (35) 
InChI=1S/C16H24BrClO2/c1-13(2)10(17)8-11(19-5)15(4)16(13)7-6-14(3,18)12(9-16)20-15/h8,11-12H,6-7,9H2,1-5H3/t11-,12+,14-,15+,16+/m0/s1

>  <STANDARD_INCHI_KEY>  (35) 
QNMTWNMYZMLQNY-FHXAZYNBSA-N

$$$$

     RDKit          2D

 19 19  0  0  1  0  0  0  0  0999 V2000
   11.3349    5.8263    0.0000 C   0  0  0  0  0  0  0  0  0  0  0  0
   10.6188    6.2394    0.0000 C   0  0  0  0  0  0  0  0  0  0  0  0
    9.1865    6.2394    0.0000 C   0  0  0  0  0  0  0  0  0  0  0  0
    9.9026    5.8263    0.0000 C   0  0  0  0  0  0  0  0  0  0  0  0
    8.4704    5.8263    0.0000 C   0  0  0  0  0  0  0  0  0  0  0  0
    7.7543    6.2394    0.0000 C   0  0  0  0  0  0  0  0  0  0  0  0
    5.7987    7.2585    0.0000 C   0  0  0  0  0  0  0  0  0  0  0  0
    5.7437    6.3496    0.0000 C   0  0  0  0  0  0  0  0  0  0  0  0
    6.2394    5.8263    0.0000 C   0  0  0  0  0  0  0  0  0  0  0  0
    6.4047    7.7267    0.0000 C   0  0  0  0  0  0  0  0  0  0  0  0
    6.1843    8.5255    0.0000 O   0  0  0  0  0  0  0  0  0  0  0  0
    7.2585    7.6441    0.0000 C   0  0  0  0  0  0  0  0  0  0  0  0
    7.8094    7.0657    0.0000 C   0  0  0  0  0  0  0  0  0  0  0  0
    7.0382    5.7437    0.0000 O   0  0  0  0  0  0  0  0  0  0  0  0
    7.6717    8.3602    0.0000 O   0  0  0  0  0  0  0  0  0  0  0  0
    5.8263    5.1102    0.0000 C   0  0  0  0  0  0  0  0  0  0  0  0
    5.0000    5.1102    0.0000 C   0  0  0  0  0  0  0  0  0  0  0  0
    8.4704    5.0000    0.0000 Cl  0  0  0  0  0  0  0  0  0  0  0  0
   12.0785    5.4131    0.0000 C   0  0  0  0  0  0  0  0  0  0  0  0
  1  2  1  0
  2  4  2  0
  3  4  1  0
  3  5  1  0
  6  5  1  6
  6 13  1  0
  6 14  1  0
  7  8  2  0
  7 10  1  0
  8  9  1  0
  9 14  1  0
  9 16  1  6
 10 11  1  1
 10 12  1  0
 12 13  1  0
 12 15  1  6
 16 17  1  0
  5 18  1  0
  1 19  3  0
M  END
>  <COMPOUND_ID>  (36) 
CMNPD627

>  <MOLECULAR_FORMULA>  (36) 
C15H21ClO3

>  <MOLECULAR_WEIGHT>  (36) 
284.78299999999996

>  <MOLECULAR_MASS>  (36) 
284.11792221200005

>  <ALOGP>  (36) 
2.0187999999999997

>  <ROTATABLE_BONDS>  (36) 
4

>  <HBA>  (36) 
3

>  <HBD>  (36) 
2

>  <POLAR_SURFACE_AREA>  (36) 
49.69

>  <AROMATIC_RINGS>  (36) 
0

>  <HEAVY_ATOMS>  (36) 
19

>  <QED_WEIGHTED>  (36) 
0.47170940682768125

>  <BLOOD_BRAIN_BARRIER_PENETRATION>  (36) 
-3.2e-002

>  <BLOOD_BRAIN_BARRIER_PENETRATION_LEVEL>  (36) 
2

>  <HUMAN_INTESTINAL_ABSORPTION_LEVEL>  (36) 
0

>  <AQUEOUS_SOLUBILITY>  (36) 
-2.754

>  <AQUEOUS_SOLUBILITY_LEVEL>  (36) 
3

>  <CYP2D6_BINDING_MODEL>  (36) 
false

>  <HEPATOTOXICITY_MODEL>  (36) 
true

>  <PLASMA_PROTEIN_BINDING_MODEL>  (36) 
true

>  <SMILES>  (36) 
C(#C)\C=C\CC(Cl)[C@@H]1O[C@H](CC)\C=C/[C@H]([C@H](O)C1)O

>  <STANDARD_INCHI>  (36) 
InChI=1S/C15H21ClO3/c1-3-5-6-7-12(16)15-10-14(18)13(17)9-8-11(4-2)19-15/h1,5-6,8-9,11-15,17-18H,4,7,10H2,2H3/b6-5+,9-8-/t11-,12?,13-,14-,15-/m1/s1

>  <STANDARD_INCHI_KEY>  (36) 
BZXLYBRSHROSLS-JCWLMZCISA-N

$$$$

     RDKit          2D

 18 19  0  0  1  0  0  0  0  0999 V2000
    5.7166    6.2402    0.0000 C   0  0  0  0  0  0  0  0  0  0  0  0
    6.4331    5.8268    0.0000 C   0  0  0  0  0  0  0  0  0  0  0  0
    6.4331    5.0000    0.0000 C   0  0  0  0  0  0  0  0  0  0  0  0
    5.0000    5.8268    0.0000 O   0  0  0  0  0  0  0  0  0  0  0  0
    5.7441    7.0670    0.0000 C   0  0  0  0  0  0  0  0  0  0  0  0
    5.0276    7.4804    0.0000 O   0  0  0  0  0  0  0  0  0  0  0  0
    6.4331    7.4804    0.0000 C   0  0  0  0  0  0  0  0  0  0  0  0
    6.4331    8.3072    0.0000 C   0  0  0  0  0  0  0  0  0  0  0  0
    7.1497    7.0670    0.0000 C   0  0  0  0  0  0  0  0  0  0  0  0
    7.8111    7.5631    0.0000 C   0  0  0  0  0  0  0  0  0  0  0  0
    8.6103    7.3977    0.0000 C   0  0  0  0  0  0  0  0  0  0  0  0
    8.9686    6.6536    0.0000 C   0  0  0  0  0  0  0  0  0  0  0  0
    9.7954    6.6536    0.0000 C   0  0  0  0  0  0  0  0  0  0  0  0
    8.6103    5.9095    0.0000 C   0  0  0  0  0  0  0  0  0  0  0  0
    7.8111    5.7166    0.0000 C   0  0  0  0  0  0  0  0  0  0  0  0
    7.1497    6.2126    0.0000 C   0  0  0  0  0  0  0  0  0  0  0  0
    7.1497    5.3858    0.0000 C   0  0  0  0  0  0  0  0  0  0  0  0
    7.6457    8.3623    0.0000 O   0  0  0  0  0  0  0  0  0  0  0  0
  1  2  1  0
  1  4  1  1
  1  5  1  0
  2  3  1  1
  2 16  1  0
  5  6  2  0
  5  7  1  0
  7  8  1  0
  7  9  2  0
  9 10  1  0
  9 16  1  0
 10 11  1  0
 10 18  1  6
 11 12  1  0
 12 13  1  0
 12 14  2  0
 14 15  1  0
 15 16  1  0
 16 17  1  1
M  END
>  <COMPOUND_ID>  (37) 
CMNPD13360

>  <MOLECULAR_FORMULA>  (37) 
C15H22O3

>  <MOLECULAR_WEIGHT>  (37) 
250.33799999999997

>  <MOLECULAR_MASS>  (37) 
250.156894564

>  <ALOGP>  (37) 
1.9899

>  <ROTATABLE_BONDS>  (37) 
0

>  <HBA>  (37) 
3

>  <HBD>  (37) 
2

>  <POLAR_SURFACE_AREA>  (37) 
57.53

>  <AROMATIC_RINGS>  (37) 
0

>  <HEAVY_ATOMS>  (37) 
18

>  <QED_WEIGHTED>  (37) 
0.6463910710760882

>  <BLOOD_BRAIN_BARRIER_PENETRATION>  (37) 
-0.447

>  <BLOOD_BRAIN_BARRIER_PENETRATION_LEVEL>  (37) 
2

>  <HUMAN_INTESTINAL_ABSORPTION_LEVEL>  (37) 
0

>  <AQUEOUS_SOLUBILITY>  (37) 
-2.61

>  <AQUEOUS_SOLUBILITY_LEVEL>  (37) 
3

>  <CYP2D6_BINDING_MODEL>  (37) 
false

>  <HEPATOTOXICITY_MODEL>  (37) 
false

>  <PLASMA_PROTEIN_BINDING_MODEL>  (37) 
true

>  <SMILES>  (37) 
[C@@H]1(C(C(=C2[C@](C)(CC=C(C)C[C@H]2O)[C@H]1C)C)=O)O

>  <STANDARD_INCHI>  (37) 
InChI=1S/C15H22O3/c1-8-5-6-15(4)10(3)14(18)13(17)9(2)12(15)11(16)7-8/h5,10-11,14,16,18H,6-7H2,1-4H3/t10-,11+,14+,15+/m0/s1

>  <STANDARD_INCHI_KEY>  (37) 
STLDUPLKJSWMBL-RBDSIQFVSA-N

$$$$

     RDKit          2D

 19 21  0  0  1  0  0  0  0  0999 V2000
    5.7438    6.2397    0.0000 C   0  0  0  0  0  0  0  0  0  0  0  0
    6.4325    5.8264    0.0000 C   0  0  0  0  0  0  0  0  0  0  0  0
    6.4325    5.0000    0.0000 O   0  0  0  0  0  0  0  0  0  0  0  0
    5.7438    7.0661    0.0000 C   0  0  0  0  0  0  0  0  0  0  0  0
    5.0000    7.4242    0.0000 Br  0  0  0  0  0  0  0  0  0  0  0  0
    6.4325    7.4793    0.0000 C   0  0  0  0  0  0  0  0  0  0  0  0
    6.0193    8.1680    0.0000 C   0  0  0  0  0  0  0  0  0  0  0  0
    6.7906    8.1680    0.0000 C   0  0  0  0  0  0  0  0  0  0  0  0
    7.1488    7.0661    0.0000 C   0  0  0  0  0  0  0  0  0  0  0  0
    7.5620    7.7548    0.0000 C   0  0  0  0  0  0  0  0  0  0  0  0
    8.3609    7.9752    0.0000 C   0  0  0  0  0  0  0  0  0  0  0  0
    8.9394    7.3967    0.0000 C   0  0  0  0  0  0  0  0  0  0  0  0
    9.3526    8.1129    0.0000 C   0  0  0  0  0  0  0  0  0  0  0  0
    9.7383    7.1763    0.0000 Cl  0  0  0  0  0  0  0  0  0  0  0  0
    8.5262    6.5978    0.0000 C   0  0  0  0  0  0  0  0  0  0  0  0
    7.9476    7.2589    0.0000 C   0  0  0  0  0  0  0  0  0  0  0  0
    7.1488    6.2397    0.0000 C   0  0  0  0  0  0  0  0  0  0  0  0
    7.9476    6.0193    0.0000 O   0  0  0  0  0  0  0  0  0  0  0  0
    7.2038    5.4132    0.0000 C   0  0  0  0  0  0  0  0  0  0  0  0
  1  2  1  0
  1  4  2  0
  2  3  1  1
  2 17  1  0
  4  5  1  0
  4  6  1  0
  6  7  1  0
  6  8  1  0
  6  9  1  0
  9 10  1  6
  9 16  1  0
  9 17  1  0
 10 11  1  0
 11 12  1  0
 12 13  1  1
 12 14  1  0
 12 15  1  0
 15 16  1  0
 15 18  1  6
 17 18  1  0
 17 19  1  6
M  END
>  <COMPOUND_ID>  (38) 
CMNPD20002

>  <MOLECULAR_FORMULA>  (38) 
C15H22BrClO2

>  <MOLECULAR_WEIGHT>  (38) 
349.696

>  <MOLECULAR_MASS>  (38) 
348.04916972399997

>  <ALOGP>  (38) 
3.9912000000000036

>  <ROTATABLE_BONDS>  (38) 
0

>  <HBA>  (38) 
2

>  <HBD>  (38) 
1

>  <POLAR_SURFACE_AREA>  (38) 
29.46

>  <AROMATIC_RINGS>  (38) 
0

>  <HEAVY_ATOMS>  (38) 
19

>  <QED_WEIGHTED>  (38) 
0.6700452376567455

>  <BLOOD_BRAIN_BARRIER_PENETRATION>  (38) 
0.272

>  <BLOOD_BRAIN_BARRIER_PENETRATION_LEVEL>  (38) 
1

>  <HUMAN_INTESTINAL_ABSORPTION_LEVEL>  (38) 
0

>  <AQUEOUS_SOLUBILITY>  (38) 
-4.36

>  <AQUEOUS_SOLUBILITY_LEVEL>  (38) 
2

>  <CYP2D6_BINDING_MODEL>  (38) 
false

>  <HEPATOTOXICITY_MODEL>  (38) 
true

>  <PLASMA_PROTEIN_BINDING_MODEL>  (38) 
true

>  <SMILES>  (38) 
C1=C(C([C@]2([C@@](C)(O3)[C@H]1O)C[C@@H]3[C@](Cl)(C)CC2)(C)C)Br

>  <STANDARD_INCHI>  (38) 
InChI=1S/C15H22BrClO2/c1-12(2)9(16)7-10(18)14(4)15(12)6-5-13(3,17)11(8-15)19-14/h7,10-11,18H,5-6,8H2,1-4H3/t10-,11+,13-,14-,15+/m0/s1

>  <STANDARD_INCHI_KEY>  (38) 
DQGHGRXDZHRTFQ-FONWIUJUSA-N

$$$$

     RDKit          2D

 18 18  0  0  0  0  0  0  0  0999 V2000
    5.7169    6.1030    0.0000 C   0  0  0  0  0  0  0  0  0  0  0  0
    6.4339    5.6894    0.0000 C   0  0  0  0  0  0  0  0  0  0  0  0
    6.0203    5.0000    0.0000 C   0  0  0  0  0  0  0  0  0  0  0  0
    5.0000    5.6894    0.0000 Br  0  0  0  0  0  0  0  0  0  0  0  0
    5.7169    6.9302    0.0000 C   0  0  0  0  0  0  0  0  0  0  0  0
    6.4339    7.3438    0.0000 C   0  0  0  0  0  0  0  0  0  0  0  0
    6.4339    8.1711    0.0000 O   0  0  0  0  0  0  0  0  0  0  0  0
    7.1508    6.9302    0.0000 C   0  0  0  0  0  0  0  0  0  0  0  0
    7.8953    7.3438    0.0000 C   0  0  0  0  0  0  0  0  0  0  0  0
    7.1508    6.1030    0.0000 C   0  0  0  0  0  0  0  0  0  0  0  0
    7.8953    5.6894    0.0000 C   0  0  0  0  0  0  0  0  0  0  0  0
    8.6122    6.1030    0.0000 C   0  0  0  0  0  0  0  0  0  0  0  0
    9.3292    5.6894    0.0000 C   0  0  0  0  0  0  0  0  0  0  0  0
   10.0461    6.1030    0.0000 C   0  0  0  0  0  0  0  0  0  0  0  0
   10.7631    5.6894    0.0000 C   0  0  0  0  0  0  0  0  0  0  0  0
    9.7428    5.0000    0.0000 O   0  0  0  0  0  0  0  0  0  0  0  0
    8.9156    5.0000    0.0000 C   0  0  0  0  0  0  0  0  0  0  0  0
    6.8475    5.0000    0.0000 C   0  0  0  0  0  0  0  0  0  0  0  0
  1  2  1  0
  1  4  1  0
  1  5  1  0
  2  3  1  0
  2 10  1  0
  2 18  1  0
  5  6  1  0
  6  7  2  0
  6  8  1  0
  8  9  1  0
  8 10  1  0
 10 11  2  0
 11 12  1  0
 12 13  1  0
 13 14  1  0
 13 16  1  0
 13 17  1  0
 14 15  2  0
M  END
>  <COMPOUND_ID>  (39) 
CMNPD13355

>  <MOLECULAR_FORMULA>  (39) 
C15H23BrO2

>  <MOLECULAR_WEIGHT>  (39) 
315.25100000000003

>  <MOLECULAR_MASS>  (39) 
314.088142076

>  <ALOGP>  (39) 
3.638500000000003

>  <ROTATABLE_BONDS>  (39) 
3

>  <HBA>  (39) 
2

>  <HBD>  (39) 
1

>  <POLAR_SURFACE_AREA>  (39) 
37.3

>  <AROMATIC_RINGS>  (39) 
0

>  <HEAVY_ATOMS>  (39) 
18

>  <QED_WEIGHTED>  (39) 
0.6376114779353511

>  <BLOOD_BRAIN_BARRIER_PENETRATION>  (39) 
0.218

>  <BLOOD_BRAIN_BARRIER_PENETRATION_LEVEL>  (39) 
1

>  <HUMAN_INTESTINAL_ABSORPTION_LEVEL>  (39) 
0

>  <AQUEOUS_SOLUBILITY>  (39) 
-3.637

>  <AQUEOUS_SOLUBILITY_LEVEL>  (39) 
3

>  <CYP2D6_BINDING_MODEL>  (39) 
false

>  <HEPATOTOXICITY_MODEL>  (39) 
false

>  <PLASMA_PROTEIN_BINDING_MODEL>  (39) 
true

>  <SMILES>  (39) 
C1(CC(C(\C(=C/CC(C)(O)C=C)\C1(C)C)C)=O)Br

>  <STANDARD_INCHI>  (39) 
InChI=1S/C15H23BrO2/c1-6-15(5,18)8-7-11-10(2)12(17)9-13(16)14(11,3)4/h6-7,10,13,18H,1,8-9H2,2-5H3/b11-7+

>  <STANDARD_INCHI_KEY>  (39) 
WYSLNCUJDAJWAT-YRNVUSSQSA-N

$$$$

     RDKit          2D

 19 20  0  0  1  0  0  0  0  0999 V2000
    5.7157    6.2388    0.0000 C   0  0  0  0  0  0  0  0  0  0  0  0
    5.7157    5.4129    0.0000 C   0  0  0  0  0  0  0  0  0  0  0  0
    6.4315    5.0000    0.0000 C   0  0  0  0  0  0  0  0  0  0  0  0
    7.1472    5.4129    0.0000 C   0  0  0  0  0  0  0  0  0  0  0  0
    7.1472    6.2388    0.0000 C   0  0  0  0  0  0  0  0  0  0  0  0
    6.4315    6.6517    0.0000 C   0  0  0  0  0  0  0  0  0  0  0  0
    7.8630    5.8259    0.0000 C   0  0  0  0  0  0  0  0  0  0  0  0
    8.5787    6.2388    0.0000 C   0  0  0  0  0  0  0  0  0  0  0  0
    8.5787    7.0647    0.0000 C   0  0  0  0  0  0  0  0  0  0  0  0
    7.8630    7.4776    0.0000 C   0  0  0  0  0  0  0  0  0  0  0  0
    7.1472    7.0647    0.0000 C   0  0  0  0  0  0  0  0  0  0  0  0
    6.8444    7.3675    0.0000 C   0  0  0  0  0  0  0  0  0  0  0  0
    6.0186    7.3675    0.0000 C   0  0  0  0  0  0  0  0  0  0  0  0
    5.0000    6.6517    0.0000 Br  0  0  0  0  0  0  0  0  0  0  0  0
    5.0000    5.0000    0.0000 O   0  0  0  0  0  0  0  0  0  0  0  0
    7.8630    5.0000    0.0000 C   0  0  0  0  0  0  0  0  0  0  0  0
    9.4046    7.0647    0.0000 C   0  0  0  0  0  0  0  0  0  0  0  0
    8.9917    7.7529    0.0000 O   0  0  0  0  0  0  0  0  0  0  0  0
    9.8175    7.7529    0.0000 O   0  0  0  0  0  0  0  0  0  0  0  0
  1  2  1  0
  1  6  1  0
  1 14  1  6
  2  3  1  0
  2 15  1  6
  3  4  1  0
  4  5  1  0
  4 16  2  0
  5  6  1  0
  5  7  1  1
  5 11  1  0
  6 12  1  0
  6 13  1  0
  7  8  1  0
  8  9  1  0
  9 10  1  0
  9 17  1  6
  9 18  1  0
 10 11  2  0
 18 19  1  0
M  END
>  <COMPOUND_ID>  (40) 
CMNPD29317

>  <MOLECULAR_FORMULA>  (40) 
C15H23BrO3

>  <MOLECULAR_WEIGHT>  (40) 
331.25000000000006

>  <MOLECULAR_MASS>  (40) 
330.08305669599997

>  <ALOGP>  (40) 
3.681600000000002

>  <ROTATABLE_BONDS>  (40) 
1

>  <HBA>  (40) 
3

>  <HBD>  (40) 
2

>  <POLAR_SURFACE_AREA>  (40) 
49.69

>  <AROMATIC_RINGS>  (40) 
0

>  <HEAVY_ATOMS>  (40) 
19

>  <QED_WEIGHTED>  (40) 
0.3334832038530573

>  <BLOOD_BRAIN_BARRIER_PENETRATION>  (40) 
-0.122

>  <BLOOD_BRAIN_BARRIER_PENETRATION_LEVEL>  (40) 
2

>  <HUMAN_INTESTINAL_ABSORPTION_LEVEL>  (40) 
0

>  <AQUEOUS_SOLUBILITY>  (40) 
-3.408

>  <AQUEOUS_SOLUBILITY_LEVEL>  (40) 
3

>  <CYP2D6_BINDING_MODEL>  (40) 
false

>  <HEPATOTOXICITY_MODEL>  (40) 
false

>  <PLASMA_PROTEIN_BINDING_MODEL>  (40) 
false

>  <SMILES>  (40) 
[C@@H]1(Br)C(C)(C)[C@]2(C=C[C@](OO)(C)CC2)C(=C)C[C@@H]1O

>  <STANDARD_INCHI>  (40) 
InChI=1S/C15H23BrO3/c1-10-9-11(17)12(16)13(2,3)15(10)7-5-14(4,19-18)6-8-15/h5,7,11-12,17-18H,1,6,8-9H2,2-4H3/t11-,12-,14+,15-/m0/s1

>  <STANDARD_INCHI_KEY>  (40) 
OAIRBCBTDRDWBP-VIRABCJISA-N

$$$$

     RDKit          2D

 19 20  0  0  1  0  0  0  0  0999 V2000
   10.8396    6.4324    0.0000 C   0  0  0  0  0  0  0  0  0  0  0  0
   10.4265    5.7162    0.0000 C   0  0  0  0  0  0  0  0  0  0  0  0
   10.8396    5.0000    0.0000 C   0  0  0  0  0  0  0  0  0  0  0  0
   10.4265    7.1486    0.0000 C   0  0  0  0  0  0  0  0  0  0  0  0
    9.6001    7.1486    0.0000 C   0  0  0  0  0  0  0  0  0  0  0  0
    9.1318    6.4599    0.0000 C   0  0  0  0  0  0  0  0  0  0  0  0
    8.3330    6.7354    0.0000 C   0  0  0  0  0  0  0  0  0  0  0  0
    8.3330    7.5617    0.0000 C   0  0  0  0  0  0  0  0  0  0  0  0
    7.5617    7.8096    0.0000 C   0  0  0  0  0  0  0  0  0  0  0  0
    7.0659    7.1486    0.0000 C   0  0  0  0  0  0  0  0  0  0  0  0
    7.5617    6.4599    0.0000 O   0  0  0  0  0  0  0  0  0  0  0  0
    6.2395    7.1486    0.0000 C   0  0  0  0  0  0  0  0  0  0  0  0
    5.8264    6.4324    0.0000 Br  0  0  0  0  0  0  0  0  0  0  0  0
    5.8264    7.8372    0.0000 C   0  0  0  0  0  0  0  0  0  0  0  0
    5.0000    7.8372    0.0000 C   0  0  0  0  0  0  0  0  0  0  0  0
    9.1318    7.8096    0.0000 O   0  0  0  0  0  0  0  0  0  0  0  0
   10.8396    7.8372    0.0000 O   0  0  0  0  0  0  0  0  0  0  0  0
   11.6660    5.0000    0.0000 C   0  0  0  0  0  0  0  0  0  0  0  0
   12.4924    5.0000    0.0000 C   0  0  0  0  0  0  0  0  0  0  0  0
  1  2  1  0
  1  4  1  0
  2  3  2  0
  3 18  1  0
  4  5  1  0
  4 17  1  6
  5  6  1  1
  5 16  1  0
  7  6  1  1
  7 11  1  0
  7  8  1  0
  8  9  1  1
  8 16  1  0
  9 10  1  0
 10 11  1  0
 10 12  1  1
 12 13  1  0
 12 14  1  0
 14 15  1  0
 18 19  3  0
M  END
>  <COMPOUND_ID>  (41) 
CMNPD19983

>  <MOLECULAR_FORMULA>  (41) 
C15H21BrO3

>  <MOLECULAR_WEIGHT>  (41) 
329.2340000000001

>  <MOLECULAR_MASS>  (41) 
328.067406632

>  <ALOGP>  (41) 
2.4153000000000002

>  <ROTATABLE_BONDS>  (41) 
5

>  <HBA>  (41) 
3

>  <HBD>  (41) 
1

>  <POLAR_SURFACE_AREA>  (41) 
38.69

>  <AROMATIC_RINGS>  (41) 
0

>  <HEAVY_ATOMS>  (41) 
19

>  <QED_WEIGHTED>  (41) 
0.6218714019667119

>  <BLOOD_BRAIN_BARRIER_PENETRATION>  (41) 
0.154

>  <BLOOD_BRAIN_BARRIER_PENETRATION_LEVEL>  (41) 
1

>  <HUMAN_INTESTINAL_ABSORPTION_LEVEL>  (41) 
0

>  <AQUEOUS_SOLUBILITY>  (41) 
-3.215

>  <AQUEOUS_SOLUBILITY_LEVEL>  (41) 
3

>  <CYP2D6_BINDING_MODEL>  (41) 
false

>  <HEPATOTOXICITY_MODEL>  (41) 
true

>  <PLASMA_PROTEIN_BINDING_MODEL>  (41) 
true

>  <SMILES>  (41) 
C([C@@H](O)[C@@H]1O[C@H](C[C@H](C(CC)Br)O2)[C@H]2C1)\C=C/C#C

>  <STANDARD_INCHI>  (41) 
InChI=1S/C15H21BrO3/c1-3-5-6-7-11(17)13-9-15-14(19-13)8-12(18-15)10(16)4-2/h1,5-6,10-15,17H,4,7-9H2,2H3/b6-5-/t10?,11-,12-,13-,14-,15-/m1/s1

>  <STANDARD_INCHI_KEY>  (41) 
IGGWUQFVBHRWOH-AVJUKFESSA-N

$$$$

     RDKit          2D

 13 12  0  0  0  0  0  0  0  0999 V2000
    5.7157    6.2387    0.0000 C   0  0  0  0  0  0  0  0  0  0  0  0
    6.4314    5.8258    0.0000 C   0  0  0  0  0  0  0  0  0  0  0  0
    6.4314    5.0000    0.0000 Br  0  0  0  0  0  0  0  0  0  0  0  0
    5.0000    5.8258    0.0000 C   0  0  0  0  0  0  0  0  0  0  0  0
    5.7157    7.0645    0.0000 C   0  0  0  0  0  0  0  0  0  0  0  0
    7.1471    6.2387    0.0000 C   0  0  0  0  0  0  0  0  0  0  0  0
    7.8628    5.8258    0.0000 C   0  0  0  0  0  0  0  0  0  0  0  0
    8.5785    6.2387    0.0000 C   0  0  0  0  0  0  0  0  0  0  0  0
    8.5785    7.0645    0.0000 C   0  0  0  0  0  0  0  0  0  0  0  0
    9.2942    7.4499    0.0000 Cl  0  0  0  0  0  0  0  0  0  0  0  0
    9.2942    5.8258    0.0000 C   0  0  0  0  0  0  0  0  0  0  0  0
   10.0099    6.2387    0.0000 C   0  0  0  0  0  0  0  0  0  0  0  0
    9.2942    5.0000    0.0000 Cl  0  0  0  0  0  0  0  0  0  0  0  0
  1  2  2  0
  1  4  1  0
  1  5  1  0
  2  3  1  0
  2  6  1  0
  6  7  1  0
  7  8  1  0
  8  9  2  0
  8 11  1  0
  9 10  1  0
 11 12  2  0
 11 13  1  0
M  END
>  <COMPOUND_ID>  (42) 
CMNPD15835

>  <MOLECULAR_FORMULA>  (42) 
C10H13BrCl2

>  <MOLECULAR_WEIGHT>  (42) 
284.02399999999994

>  <MOLECULAR_MASS>  (42) 
281.95776787600005

>  <ALOGP>  (42) 
5.330600000000002

>  <ROTATABLE_BONDS>  (42) 
4

>  <HBA>  (42) 
0

>  <HBD>  (42) 
0

>  <POLAR_SURFACE_AREA>  (42) 
0.0

>  <AROMATIC_RINGS>  (42) 
0

>  <HEAVY_ATOMS>  (42) 
13

>  <QED_WEIGHTED>  (42) 
0.6118453022461823

>  <BLOOD_BRAIN_BARRIER_PENETRATION>  (42) 
1.215

>  <BLOOD_BRAIN_BARRIER_PENETRATION_LEVEL>  (42) 
0

>  <HUMAN_INTESTINAL_ABSORPTION_LEVEL>  (42) 
1

>  <AQUEOUS_SOLUBILITY>  (42) 
-4.47

>  <AQUEOUS_SOLUBILITY_LEVEL>  (42) 
2

>  <CYP2D6_BINDING_MODEL>  (42) 
true

>  <HEPATOTOXICITY_MODEL>  (42) 
true

>  <PLASMA_PROTEIN_BINDING_MODEL>  (42) 
true

>  <SMILES>  (42) 
C(/C)(\C)=C(/CC\C(\C(Cl)=C)=C\Cl)\Br

>  <STANDARD_INCHI>  (42) 
InChI=1S/C10H13BrCl2/c1-7(2)10(11)5-4-9(6-12)8(3)13/h6H,3-5H2,1-2H3/b9-6-

>  <STANDARD_INCHI_KEY>  (42) 
DQLQSCIFAZPZCB-TWGQIWQCSA-N

$$$$

     RDKit          2D

 19 20  0  0  0  0  0  0  0  0999 V2000
    6.5417    6.2389    0.0000 C   0  0  0  0  0  0  0  0  0  0  0  0
    6.5417    5.4130    0.0000 C   0  0  0  0  0  0  0  0  0  0  0  0
    7.2575    5.0000    0.0000 C   0  0  0  0  0  0  0  0  0  0  0  0
    5.8259    6.6518    0.0000 C   0  0  0  0  0  0  0  0  0  0  0  0
    5.8259    7.4778    0.0000 C   0  0  0  0  0  0  0  0  0  0  0  0
    5.0000    7.4778    0.0000 C   0  0  0  0  0  0  0  0  0  0  0  0
    5.4130    8.1936    0.0000 C   0  0  0  0  0  0  0  0  0  0  0  0
    6.5417    7.8907    0.0000 C   0  0  0  0  0  0  0  0  0  0  0  0
    7.2575    7.4778    0.0000 C   0  0  0  0  0  0  0  0  0  0  0  0
    7.3401    8.3037    0.0000 O   0  0  0  0  0  0  0  0  0  0  0  0
    8.0284    7.7255    0.0000 C   0  0  0  0  0  0  0  0  0  0  0  0
    8.6616    8.2762    0.0000 C   0  0  0  0  0  0  0  0  0  0  0  0
    7.8632    8.5239    0.0000 O   0  0  0  0  0  0  0  0  0  0  0  0
    8.5239    7.0648    0.0000 C   0  0  0  0  0  0  0  0  0  0  0  0
    9.3498    7.0648    0.0000 Cl  0  0  0  0  0  0  0  0  0  0  0  0
    8.0284    6.4041    0.0000 C   0  0  0  0  0  0  0  0  0  0  0  0
    7.2575    6.6518    0.0000 C   0  0  0  0  0  0  0  0  0  0  0  0
    7.3401    5.8259    0.0000 O   0  0  0  0  0  0  0  0  0  0  0  0
    5.8259    5.0000    0.0000 C   0  0  0  0  0  0  0  0  0  0  0  0
  1  2  1  0
  1  4  1  0
  1 17  1  0
  2  3  1  0
  2 19  1  0
  4  5  1  0
  5  6  1  0
  5  7  1  0
  5  8  1  0
  8  9  1  0
  9 10  1  0
  9 11  1  0
  9 17  1  0
 11 12  1  0
 11 13  1  0
 11 14  1  0
 14 15  1  0
 14 16  1  0
 16 17  1  0
 17 18  1  0
M  END
>  <COMPOUND_ID>  (43) 
CMNPD14035

>  <MOLECULAR_FORMULA>  (43) 
C15H27ClO3

>  <MOLECULAR_WEIGHT>  (43) 
290.831

>  <MOLECULAR_MASS>  (43) 
290.16487240400005

>  <ALOGP>  (43) 
2.3029

>  <ROTATABLE_BONDS>  (43) 
1

>  <HBA>  (43) 
3

>  <HBD>  (43) 
3

>  <POLAR_SURFACE_AREA>  (43) 
60.69

>  <AROMATIC_RINGS>  (43) 
0

>  <HEAVY_ATOMS>  (43) 
19

>  <QED_WEIGHTED>  (43) 
0.6495699151922797

>  <BLOOD_BRAIN_BARRIER_PENETRATION>  (43) 
-0.524

>  <BLOOD_BRAIN_BARRIER_PENETRATION_LEVEL>  (43) 
3

>  <HUMAN_INTESTINAL_ABSORPTION_LEVEL>  (43) 
0

>  <AQUEOUS_SOLUBILITY>  (43) 
-2.36

>  <AQUEOUS_SOLUBILITY_LEVEL>  (43) 
3

>  <CYP2D6_BINDING_MODEL>  (43) 
false

>  <HEPATOTOXICITY_MODEL>  (43) 
true

>  <PLASMA_PROTEIN_BINDING_MODEL>  (43) 
true

>  <SMILES>  (43) 
C1(C(O)(CC(Cl)C2(O)C)C2(O)CC(C)(C)C1)C(C)C

>  <STANDARD_INCHI>  (43) 
InChI=1S/C15H27ClO3/c1-9(2)10-6-12(3,4)8-15(19)13(5,17)11(16)7-14(10,15)18/h9-11,17-19H,6-8H2,1-5H3

>  <STANDARD_INCHI_KEY>  (43) 
XQKXCKCZBAMERY-UHFFFAOYSA-N

$$$$

     RDKit          2D

 14 14  0  0  1  0  0  0  0  0999 V2000
    6.5428    5.3031    0.0000 C   0  0  0  0  0  0  0  0  0  0  0  0
    5.8265    5.6888    0.0000 C   0  0  0  0  0  0  0  0  0  0  0  0
    5.8265    6.5428    0.0000 C   0  0  0  0  0  0  0  0  0  0  0  0
    7.2592    5.6888    0.0000 C   0  0  0  0  0  0  0  0  0  0  0  0
    7.2592    6.5428    0.0000 C   0  0  0  0  0  0  0  0  0  0  0  0
    6.5428    6.9285    0.0000 C   0  0  0  0  0  0  0  0  0  0  0  0
    7.9755    6.9561    0.0000 C   0  0  0  0  0  0  0  0  0  0  0  0
    8.7193    6.5428    0.0000 C   0  0  0  0  0  0  0  0  0  0  0  0
    7.9755    7.7551    0.0000 C   0  0  0  0  0  0  0  0  0  0  0  0
    5.0000    5.6888    0.0000 O   0  0  0  0  0  0  0  0  0  0  0  0
    5.1102    6.9561    0.0000 Br  0  0  0  0  0  0  0  0  0  0  0  0
    5.4133    5.0000    0.0000 C   0  0  0  0  0  0  0  0  0  0  0  0
    9.4357    6.9561    0.0000 C   0  0  0  0  0  0  0  0  0  0  0  0
   10.1520    6.5428    0.0000 O   0  0  0  0  0  0  0  0  0  0  0  0
  1  2  1  0
  1  4  1  0
  2  3  1  0
  2 10  1  0
  3  6  1  0
  3 11  1  1
  4  5  1  0
  5  6  1  0
  5  7  1  1
  7  8  2  0
  7  9  1  0
  8 13  1  0
  2 12  1  6
 13 14  2  0
M  END
>  <COMPOUND_ID>  (44) 
CMNPD8861

>  <MOLECULAR_FORMULA>  (44) 
C11H17BrO2

>  <MOLECULAR_WEIGHT>  (44) 
261.159

>  <MOLECULAR_MASS>  (44) 
260.041191884

>  <ALOGP>  (44) 
2.4462

>  <ROTATABLE_BONDS>  (44) 
2

>  <HBA>  (44) 
2

>  <HBD>  (44) 
1

>  <POLAR_SURFACE_AREA>  (44) 
37.3

>  <AROMATIC_RINGS>  (44) 
0

>  <HEAVY_ATOMS>  (44) 
14

>  <QED_WEIGHTED>  (44) 
0.47068645336389286

>  <BLOOD_BRAIN_BARRIER_PENETRATION>  (44) 
-1.e-002

>  <BLOOD_BRAIN_BARRIER_PENETRATION_LEVEL>  (44) 
2

>  <HUMAN_INTESTINAL_ABSORPTION_LEVEL>  (44) 
0

>  <AQUEOUS_SOLUBILITY>  (44) 
-2.688

>  <AQUEOUS_SOLUBILITY_LEVEL>  (44) 
3

>  <CYP2D6_BINDING_MODEL>  (44) 
false

>  <HEPATOTOXICITY_MODEL>  (44) 
false

>  <PLASMA_PROTEIN_BINDING_MODEL>  (44) 
true

>  <SMILES>  (44) 
C1C[C@H](\C(\C)=C\C=O)C[C@H](Br)[C@]1(C)O

>  <STANDARD_INCHI>  (44) 
InChI=1S/C11H17BrO2/c1-8(4-6-13)9-3-5-11(2,14)10(12)7-9/h4,6,9-10,14H,3,5,7H2,1-2H3/b8-4+/t9-,10-,11+/m0/s1

>  <STANDARD_INCHI_KEY>  (44) 
NMCFXEPPDQBROS-SLEYYXBJSA-N

$$$$

     RDKit          2D

 19 21  0  0  1  0  0  0  0  0999 V2000
    6.0193    5.0000    0.0000 C   0  0  0  0  0  0  0  0  0  0  0  0
    6.4325    5.7163    0.0000 C   0  0  0  0  0  0  0  0  0  0  0  0
    5.7163    6.1295    0.0000 C   0  0  0  0  0  0  0  0  0  0  0  0
    5.0000    5.7163    0.0000 O   0  0  0  0  0  0  0  0  0  0  0  0
    5.7163    6.9559    0.0000 C   0  0  0  0  0  0  0  0  0  0  0  0
    6.4325    7.3692    0.0000 C   0  0  0  0  0  0  0  0  0  0  0  0
    7.1488    6.9559    0.0000 C   0  0  0  0  0  0  0  0  0  0  0  0
    7.1488    7.7824    0.0000 C   0  0  0  0  0  0  0  0  0  0  0  0
    7.8650    7.3692    0.0000 C   0  0  0  0  0  0  0  0  0  0  0  0
    7.8650    8.1956    0.0000 C   0  0  0  0  0  0  0  0  0  0  0  0
    8.5813    8.5813    0.0000 C   0  0  0  0  0  0  0  0  0  0  0  0
    9.2975    8.1956    0.0000 C   0  0  0  0  0  0  0  0  0  0  0  0
   10.0138    8.5813    0.0000 O   0  0  0  0  0  0  0  0  0  0  0  0
    9.2975    7.3692    0.0000 C   0  0  0  0  0  0  0  0  0  0  0  0
    8.5813    6.9559    0.0000 C   0  0  0  0  0  0  0  0  0  0  0  0
    8.5813    6.1295    0.0000 C   0  0  0  0  0  0  0  0  0  0  0  0
    7.8650    5.7163    0.0000 C   0  0  0  0  0  0  0  0  0  0  0  0
    7.1488    6.1295    0.0000 C   0  0  0  0  0  0  0  0  0  0  0  0
    6.8457    5.0000    0.0000 C   0  0  0  0  0  0  0  0  0  0  0  0
  1  2  1  0
  2  3  1  0
 18  2  1  1
  2 19  1  0
  3  4  1  1
  3  5  1  0
  5  6  1  0
  6  7  1  0
  7  8  1  1
  7  9  1  0
  7 18  1  0
  9 10  1  1
  9 15  1  0
 10 11  1  0
 11 12  1  0
 12 13  2  0
 12 14  1  0
 14 15  2  0
 15 16  1  0
 16 17  2  0
 17 18  1  0
M  END
>  <COMPOUND_ID>  (45) 
CMNPD24305

>  <MOLECULAR_FORMULA>  (45) 
C17H24O2

>  <MOLECULAR_WEIGHT>  (45) 
260.377

>  <MOLECULAR_MASS>  (45) 
260.177630008

>  <ALOGP>  (45) 
3.265100000000002

>  <ROTATABLE_BONDS>  (45) 
0

>  <HBA>  (45) 
2

>  <HBD>  (45) 
1

>  <POLAR_SURFACE_AREA>  (45) 
37.3

>  <AROMATIC_RINGS>  (45) 
0

>  <HEAVY_ATOMS>  (45) 
19

>  <QED_WEIGHTED>  (45) 
0.7255615079878627

>  <BLOOD_BRAIN_BARRIER_PENETRATION>  (45) 
7.5e-002

>  <BLOOD_BRAIN_BARRIER_PENETRATION_LEVEL>  (45) 
1

>  <HUMAN_INTESTINAL_ABSORPTION_LEVEL>  (45) 
0

>  <AQUEOUS_SOLUBILITY>  (45) 
-3.813

>  <AQUEOUS_SOLUBILITY_LEVEL>  (45) 
3

>  <CYP2D6_BINDING_MODEL>  (45) 
false

>  <HEPATOTOXICITY_MODEL>  (45) 
false

>  <PLASMA_PROTEIN_BINDING_MODEL>  (45) 
true

>  <SMILES>  (45) 
CC1(C)[C@]([H])(C=CC(=CC(=O)CC2)[C@]23[H])[C@]3(C)CC[C@@H]1O

>  <STANDARD_INCHI>  (45) 
InChI=1S/C17H24O2/c1-16(2)14-7-4-11-10-12(18)5-6-13(11)17(14,3)9-8-15(16)19/h4,7,10,13-15,19H,5-6,8-9H2,1-3H3/t13-,14-,15-,17+/m0/s1

>  <STANDARD_INCHI_KEY>  (45) 
AWQSAMNOOZIRLR-QBYUYEEZSA-N

$$$$

     RDKit          2D

 18 20  0  0  1  0  0  0  0  0999 V2000
    5.4140    7.8705    0.0000 C   0  0  0  0  0  0  0  0  0  0  0  0
    6.2144    8.0913    0.0000 C   0  0  0  0  0  0  0  0  0  0  0  0
    7.0148    7.8705    0.0000 C   0  0  0  0  0  0  0  0  0  0  0  0
    5.0000    7.1528    0.0000 C   0  0  0  0  0  0  0  0  0  0  0  0
    5.8004    7.3737    0.0000 C   0  0  0  0  0  0  0  0  0  0  0  0
    6.6008    7.1528    0.0000 C   0  0  0  0  0  0  0  0  0  0  0  0
    5.7728    8.5053    0.0000 O   0  0  0  0  0  0  0  0  0  0  0  0
    5.4140    6.4628    0.0000 O   0  0  0  0  0  0  0  0  0  0  0  0
    6.2420    6.4628    0.0000 C   0  0  0  0  0  0  0  0  0  0  0  0
    6.6836    5.7452    0.0000 C   0  0  0  0  0  0  0  0  0  0  0  0
    7.4841    5.7728    0.0000 Br  0  0  0  0  0  0  0  0  0  0  0  0
    6.2696    5.0276    0.0000 C   0  0  0  0  0  0  0  0  0  0  0  0
    7.7601    8.2017    0.0000 C   0  0  0  0  0  0  0  0  0  0  0  0
    7.8705    9.0021    0.0000 Cl  0  0  0  0  0  0  0  0  0  0  0  0
    8.4501    7.7049    0.0000 C   0  0  0  0  0  0  0  0  0  0  0  0
    9.2781    7.7049    0.0000 C   0  0  0  0  0  0  0  0  0  0  0  0
    9.6921    8.3949    0.0000 C   0  0  0  0  0  0  0  0  0  0  0  0
    5.4692    5.0000    0.0000 C   0  0  0  0  0  0  0  0  0  0  0  0
  2  1  1  1
  4  1  1  6
  2  3  1  0
  2  7  1  0
  3  6  1  0
  3 13  1  6
  4  5  1  0
  4  8  1  0
  5  6  1  0
  5  7  1  1
  6  9  1  6
  8  9  1  0
  9 10  2  0
 10 11  1  0
 10 12  1  0
 13 14  1  6
 13 15  1  0
 15 16  2  0
 16 17  1  0
 12 18  1  0
M  END
>  <COMPOUND_ID>  (46) 
CMNPD29306

>  <MOLECULAR_FORMULA>  (46) 
C14H18BrClO2

>  <MOLECULAR_WEIGHT>  (46) 
333.653

>  <MOLECULAR_MASS>  (46) 
332.017869596

>  <ALOGP>  (46) 
3.9887000000000032

>  <ROTATABLE_BONDS>  (46) 
3

>  <HBA>  (46) 
2

>  <HBD>  (46) 
0

>  <POLAR_SURFACE_AREA>  (46) 
18.46

>  <AROMATIC_RINGS>  (46) 
0

>  <HEAVY_ATOMS>  (46) 
18

>  <QED_WEIGHTED>  (46) 
0.5741720945681287

>  <BLOOD_BRAIN_BARRIER_PENETRATION>  (46) 
0.419

>  <BLOOD_BRAIN_BARRIER_PENETRATION_LEVEL>  (46) 
1

>  <HUMAN_INTESTINAL_ABSORPTION_LEVEL>  (46) 
0

>  <AQUEOUS_SOLUBILITY>  (46) 
-4.012

>  <AQUEOUS_SOLUBILITY_LEVEL>  (46) 
2

>  <CYP2D6_BINDING_MODEL>  (46) 
false

>  <HEPATOTOXICITY_MODEL>  (46) 
true

>  <PLASMA_PROTEIN_BINDING_MODEL>  (46) 
true

>  <SMILES>  (46) 
C1[C@@H]2[C@@H](O[C@H]13)[C@@H](\C(=C(\CC)/Br)\O2)[C@@]3([H])[C@@H](\C=C/C)Cl

>  <STANDARD_INCHI>  (46) 
InChI=1S/C14H18BrClO2/c1-3-5-8(16)11-9-6-10-14(17-9)12(11)13(18-10)7(15)4-2/h3,5,8-12,14H,4,6H2,1-2H3/b5-3-,13-7+/t8-,9-,10-,11+,12-,14-/m1/s1

>  <STANDARD_INCHI_KEY>  (46) 
SBSVPNZWKLHPCR-SDPDORGCSA-N

$$$$

     RDKit          2D

 14 13  0  0  1  0  0  0  0  0999 V2000
    7.1440    6.2369    0.0000 C   0  0  0  0  0  0  0  0  0  0  0  0
    7.8587    5.8246    0.0000 C   0  0  0  0  0  0  0  0  0  0  0  0
    7.8587    5.0000    0.0000 O   0  0  0  0  0  0  0  0  0  0  0  0
    6.4293    5.8246    0.0000 C   0  0  0  0  0  0  0  0  0  0  0  0
    5.7147    6.2369    0.0000 C   0  0  0  0  0  0  0  0  0  0  0  0
    5.0000    5.8246    0.0000 C   0  0  0  0  0  0  0  0  0  0  0  0
    5.0000    6.6492    0.0000 O   0  0  0  0  0  0  0  0  0  0  0  0
    5.7147    7.0615    0.0000 C   0  0  0  0  0  0  0  0  0  0  0  0
    8.5733    6.2369    0.0000 C   0  0  0  0  0  0  0  0  0  0  0  0
    8.1610    6.9516    0.0000 C   0  0  0  0  0  0  0  0  0  0  0  0
    9.2880    5.8246    0.0000 C   0  0  0  0  0  0  0  0  0  0  0  0
   10.0026    6.2369    0.0000 C   0  0  0  0  0  0  0  0  0  0  0  0
   10.7173    5.8246    0.0000 Br  0  0  0  0  0  0  0  0  0  0  0  0
    8.9856    6.9516    0.0000 O   0  0  0  0  0  0  0  0  0  0  0  0
  1  2  1  0
  1  4  2  0
  2  3  1  1
  2  9  1  0
  4  5  1  0
  5  6  1  0
  5  7  1  0
  5  8  1  0
  9 10  1  1
  9 11  1  0
 11 12  2  0
 12 13  1  0
  9 14  1  0
M  END
>  <COMPOUND_ID>  (47) 
CMNPD9519

>  <MOLECULAR_FORMULA>  (47) 
C10H17BrO3

>  <MOLECULAR_WEIGHT>  (47) 
265.147

>  <MOLECULAR_MASS>  (47) 
264.03610650400003

>  <ALOGP>  (47) 
1.3339999999999999

>  <ROTATABLE_BONDS>  (47) 
4

>  <HBA>  (47) 
3

>  <HBD>  (47) 
3

>  <POLAR_SURFACE_AREA>  (47) 
60.69

>  <AROMATIC_RINGS>  (47) 
0

>  <HEAVY_ATOMS>  (47) 
14

>  <QED_WEIGHTED>  (47) 
0.6720146129778387

>  <BLOOD_BRAIN_BARRIER_PENETRATION>  (47) 
-0.947

>  <BLOOD_BRAIN_BARRIER_PENETRATION_LEVEL>  (47) 
3

>  <HUMAN_INTESTINAL_ABSORPTION_LEVEL>  (47) 
0

>  <AQUEOUS_SOLUBILITY>  (47) 
-0.113

>  <AQUEOUS_SOLUBILITY_LEVEL>  (47) 
4

>  <CYP2D6_BINDING_MODEL>  (47) 
false

>  <HEPATOTOXICITY_MODEL>  (47) 
true

>  <PLASMA_PROTEIN_BINDING_MODEL>  (47) 
false

>  <SMILES>  (47) 
C(=C\C(C)(O)C)/[C@@H]([C@](O)(\C=C\Br)C)O

>  <STANDARD_INCHI>  (47) 
InChI=1S/C10H17BrO3/c1-9(2,13)5-4-8(12)10(3,14)6-7-11/h4-8,12-14H,1-3H3/b5-4+,7-6+/t8-,10+/m0/s1

>  <STANDARD_INCHI_KEY>  (47) 
JHKXVYTWMTYSLE-KTVTWTSSSA-N

$$$$

     RDKit          2D

 19 21  0  0  1  0  0  0  0  0999 V2000
    6.0152    5.0000    0.0000 C   0  0  0  0  0  0  0  0  0  0  0  0
    6.4268    5.7134    0.0000 C   0  0  0  0  0  0  0  0  0  0  0  0
    6.8109    5.0000    0.0000 C   0  0  0  0  0  0  0  0  0  0  0  0
    5.7134    6.1524    0.0000 C   0  0  0  0  0  0  0  0  0  0  0  0
    5.0000    5.6585    0.0000 Br  0  0  0  0  0  0  0  0  0  0  0  0
    5.7408    6.9206    0.0000 C   0  0  0  0  0  0  0  0  0  0  0  0
    6.3993    7.3322    0.0000 C   0  0  0  0  0  0  0  0  0  0  0  0
    7.1127    6.9481    0.0000 C   0  0  0  0  0  0  0  0  0  0  0  0
    8.2376    7.4694    0.0000 C   0  0  0  0  0  0  0  0  0  0  0  0
    7.5517    7.8810    0.0000 C   0  0  0  0  0  0  0  0  0  0  0  0
    8.2925    8.1279    0.0000 C   0  0  0  0  0  0  0  0  0  0  0  0
    8.6492    6.7834    0.0000 C   0  0  0  0  0  0  0  0  0  0  0  0
    9.4175    7.0029    0.0000 C   0  0  0  0  0  0  0  0  0  0  0  0
    9.0608    7.7163    0.0000 C   0  0  0  0  0  0  0  0  0  0  0  0
    9.5821    8.2925    0.0000 O   0  0  0  0  0  0  0  0  0  0  0  0
    7.1127    6.0975    0.0000 C   0  0  0  0  0  0  0  0  0  0  0  0
    8.9785    8.2925    0.0000 O   0  0  0  0  0  0  0  0  0  0  0  0
    9.8565    7.7163    0.0000 C   0  0  0  0  0  0  0  0  0  0  0  0
   10.1583    8.2925    0.0000 O   0  0  0  0  0  0  0  0  0  0  0  0
  1  2  1  0
  2  3  1  0
  2  4  1  0
  2 16  1  0
  4  5  1  1
  4  6  1  0
  6  7  1  0
  8  7  1  6
  8  9  1  0
  8 16  1  0
  9 10  1  0
  9 12  1  0
 10 11  1  0
 12 13  2  0
 13 14  1  0
 14 15  1  0
 14 18  1  0
 17 15  1  0
 11 14  1  0
 17  9  1  0
 18 19  1  0
M  END
>  <COMPOUND_ID>  (48) 
CMNPD7340

>  <MOLECULAR_FORMULA>  (48) 
C15H23BrO3

>  <MOLECULAR_WEIGHT>  (48) 
331.25000000000006

>  <MOLECULAR_MASS>  (48) 
330.08305669599997

>  <ALOGP>  (48) 
3.357900000000002

>  <ROTATABLE_BONDS>  (48) 
2

>  <HBA>  (48) 
3

>  <HBD>  (48) 
1

>  <POLAR_SURFACE_AREA>  (48) 
38.69

>  <AROMATIC_RINGS>  (48) 
0

>  <HEAVY_ATOMS>  (48) 
19

>  <QED_WEIGHTED>  (48) 
0.47904722128980753

>  <BLOOD_BRAIN_BARRIER_PENETRATION>  (48) 
0.442

>  <BLOOD_BRAIN_BARRIER_PENETRATION_LEVEL>  (48) 
1

>  <HUMAN_INTESTINAL_ABSORPTION_LEVEL>  (48) 
0

>  <AQUEOUS_SOLUBILITY>  (48) 
-4.871

>  <AQUEOUS_SOLUBILITY_LEVEL>  (48) 
2

>  <CYP2D6_BINDING_MODEL>  (48) 
false

>  <HEPATOTOXICITY_MODEL>  (48) 
true

>  <PLASMA_PROTEIN_BINDING_MODEL>  (48) 
true

>  <SMILES>  (48) 
CC1(C[C@](C23OOC(CC2)(CO)C=C3)([H])CC[C@@H]1Br)C

>  <STANDARD_INCHI>  (48) 
InChI=1S/C15H23BrO3/c1-13(2)9-11(3-4-12(13)16)15-7-5-14(10-17,6-8-15)18-19-15/h5,7,11-12,17H,3-4,6,8-10H2,1-2H3/t11-,12-,14?,15?/m0/s1

>  <STANDARD_INCHI_KEY>  (48) 
KZRDDGGREUNDMV-XOEAPDPESA-N

$$$$

     RDKit          2D

 17 18  0  0  1  0  0  0  0  0999 V2000
    8.7352    7.2411    0.0000 C   0  0  0  0  0  0  0  0  0  0  0  0
    8.3202    6.5494    0.0000 C   0  0  0  0  0  0  0  0  0  0  0  0
    9.5652    7.2411    0.0000 C   0  0  0  0  0  0  0  0  0  0  0  0
    9.9803    6.5494    0.0000 C   0  0  0  0  0  0  0  0  0  0  0  0
   10.8103    6.5494    0.0000 O   0  0  0  0  0  0  0  0  0  0  0  0
    9.5652    5.8300    0.0000 C   0  0  0  0  0  0  0  0  0  0  0  0
    8.7352    5.8300    0.0000 C   0  0  0  0  0  0  0  0  0  0  0  0
    7.9052    5.8300    0.0000 O   0  0  0  0  0  0  0  0  0  0  0  0
    5.8300    6.5494    0.0000 C   0  0  0  0  0  0  0  0  0  0  0  0
    5.5257    5.4150    0.0000 C   0  0  0  0  0  0  0  0  0  0  0  0
    5.0000    6.5494    0.0000 Br  0  0  0  0  0  0  0  0  0  0  0  0
    6.2451    7.2411    0.0000 C   0  0  0  0  0  0  0  0  0  0  0  0
    7.0751    5.8300    0.0000 C   0  0  0  0  0  0  0  0  0  0  0  0
    7.4901    6.5494    0.0000 C   0  0  0  0  0  0  0  0  0  0  0  0
    7.0751    7.2411    0.0000 C   0  0  0  0  0  0  0  0  0  0  0  0
    6.2451    5.8300    0.0000 C   0  0  0  0  0  0  0  0  0  0  0  0
    6.2451    5.0000    0.0000 C   0  0  0  0  0  0  0  0  0  0  0  0
  1  2  1  0
  1  3  1  0
  2  7  1  0
  2  8  1  0
  3  4  1  0
  4  5  2  0
  4  6  1  0
  6  7  2  0
  9 16  1  0
  9 11  1  1
  9 12  1  0
 16 10  1  0
 16 13  1  0
 12 15  1  0
 14 13  1  0
 14 15  1  0
 16 17  1  0
 14  2  1  6
M  END
>  <COMPOUND_ID>  (49) 
CMNPD7342

>  <MOLECULAR_FORMULA>  (49) 
C14H21BrO2

>  <MOLECULAR_WEIGHT>  (49) 
301.224

>  <MOLECULAR_MASS>  (49) 
300.072492012

>  <ALOGP>  (49) 
3.2264000000000017

>  <ROTATABLE_BONDS>  (49) 
1

>  <HBA>  (49) 
2

>  <HBD>  (49) 
1

>  <POLAR_SURFACE_AREA>  (49) 
37.3

>  <AROMATIC_RINGS>  (49) 
0

>  <HEAVY_ATOMS>  (49) 
17

>  <QED_WEIGHTED>  (49) 
0.7550584165700855

>  <BLOOD_BRAIN_BARRIER_PENETRATION>  (49) 
0.151

>  <BLOOD_BRAIN_BARRIER_PENETRATION_LEVEL>  (49) 
1

>  <HUMAN_INTESTINAL_ABSORPTION_LEVEL>  (49) 
0

>  <AQUEOUS_SOLUBILITY>  (49) 
-3.652

>  <AQUEOUS_SOLUBILITY_LEVEL>  (49) 
3

>  <CYP2D6_BINDING_MODEL>  (49) 
false

>  <HEPATOTOXICITY_MODEL>  (49) 
true

>  <PLASMA_PROTEIN_BINDING_MODEL>  (49) 
true

>  <SMILES>  (49) 
C1CC(C=CC1([C@@H](CC[C@@H]2Br)CC2(C)C)O)=O

>  <STANDARD_INCHI>  (49) 
InChI=1S/C14H21BrO2/c1-13(2)9-10(3-4-12(13)15)14(17)7-5-11(16)6-8-14/h5,7,10,12,17H,3-4,6,8-9H2,1-2H3/t10-,12-,14?/m0/s1

>  <STANDARD_INCHI_KEY>  (49) 
JZGTULZWFXGHMA-RJXBTYEGSA-N

$$$$

     RDKit          2D

 20 21  0  0  1  0  0  0  0  0999 V2000
    8.5762    6.2379    0.0000 C   0  0  0  0  0  0  0  0  0  0  0  0
    8.5762    7.0632    0.0000 C   0  0  0  0  0  0  0  0  0  0  0  0
    8.5762    5.4126    0.0000 C   0  0  0  0  0  0  0  0  0  0  0  0
    7.8609    7.5033    0.0000 C   0  0  0  0  0  0  0  0  0  0  0  0
    7.8609    5.0000    0.0000 Br  0  0  0  0  0  0  0  0  0  0  0  0
    7.1457    8.7137    0.0000 O   0  0  0  0  0  0  0  0  0  0  0  0
    7.1457    7.0907    0.0000 O   0  0  0  0  0  0  0  0  0  0  0  0
    5.0000    8.3011    0.0000 O   0  0  0  0  0  0  0  0  0  0  0  0
    7.1457   10.3642    0.0000 O   0  0  0  0  0  0  0  0  0  0  0  0
    6.4305    8.3286    0.0000 C   0  0  0  0  0  0  0  0  0  0  0  0
    7.8609    8.3286    0.0000 C   0  0  0  0  0  0  0  0  0  0  0  0
    5.7152    8.7137    0.0000 C   0  0  0  0  0  0  0  0  0  0  0  0
    7.1457    9.5665    0.0000 C   0  0  0  0  0  0  0  0  0  0  0  0
    6.4305    7.5033    0.0000 C   0  0  0  0  0  0  0  0  0  0  0  0
    5.7152    9.5665    0.0000 C   0  0  0  0  0  0  0  0  0  0  0  0
    6.4305    9.9791    0.0000 C   0  0  0  0  0  0  0  0  0  0  0  0
    8.5762    8.7137    0.0000 C   0  0  0  0  0  0  0  0  0  0  0  0
    7.8609    9.9791    0.0000 C   0  0  0  0  0  0  0  0  0  0  0  0
    8.5762    9.5665    0.0000 C   0  0  0  0  0  0  0  0  0  0  0  0
    5.7152    7.0907    0.0000 C   0  0  0  0  0  0  0  0  0  0  0  0
 10  6  1  6
 11  6  1  0
  4  7  1  0
  4 11  1  0
 12  8  1  6
 12 10  1  0
 13  9  2  0
 14  7  1  0
 14 10  1  0
 15 12  1  0
 16 13  1  0
 16 15  1  0
 11 17  1  6
 18 13  1  0
 19 17  2  0
 19 18  1  0
 14 20  1  1
  1  2  2  0
  1  3  2  0
  4  2  1  1
  3  5  1  0
M  END
>  <COMPOUND_ID>  (50) 
CMNPD25031

>  <MOLECULAR_FORMULA>  (50) 
C15H19BrO4

>  <MOLECULAR_WEIGHT>  (50) 
343.21700000000016

>  <MOLECULAR_MASS>  (50) 
342.04667118800006

>  <ALOGP>  (50) 
2.2613000000000003

>  <ROTATABLE_BONDS>  (50) 
1

>  <HBA>  (50) 
4

>  <HBD>  (50) 
1

>  <POLAR_SURFACE_AREA>  (50) 
55.76

>  <AROMATIC_RINGS>  (50) 
0

>  <HEAVY_ATOMS>  (50) 
20

>  <QED_WEIGHTED>  (50) 
0.5862072382837523

>  <BLOOD_BRAIN_BARRIER_PENETRATION>  (50) 
-0.64

>  <BLOOD_BRAIN_BARRIER_PENETRATION_LEVEL>  (50) 
3

>  <HUMAN_INTESTINAL_ABSORPTION_LEVEL>  (50) 
0

>  <AQUEOUS_SOLUBILITY>  (50) 
-2.401

>  <AQUEOUS_SOLUBILITY_LEVEL>  (50) 
3

>  <CYP2D6_BINDING_MODEL>  (50) 
false

>  <HEPATOTOXICITY_MODEL>  (50) 
false

>  <PLASMA_PROTEIN_BINDING_MODEL>  (50) 
false

>  <SMILES>  (50) 
C(=CBr)=C[C@@H]1[C@@H](\C=C/CC(CC[C@H]2O)=O)O[C@@H]2[C@H](C)O1

>  <STANDARD_INCHI>  (50) 
InChI=1S/C15H19BrO4/c1-10-15-12(18)8-7-11(17)4-2-5-14(20-15)13(19-10)6-3-9-16/h2,5-6,9-10,12-15,18H,4,7-8H2,1H3/b5-2-/t3-,10-,12+,13+,14+,15+/m0/s1

>  <STANDARD_INCHI_KEY>  (50) 
GUWDQBAYXQDWME-DWYPTZLJSA-N

$$$$

     RDKit          2D

 18 19  0  0  1  0  0  0  0  0999 V2000
    7.3666    6.4310    0.0000 C   0  0  0  0  0  0  0  0  0  0  0  0
    8.1922    6.4310    0.0000 C   0  0  0  0  0  0  0  0  0  0  0  0
    8.6875    5.7430    0.0000 C   0  0  0  0  0  0  0  0  0  0  0  0
    6.9538    5.7155    0.0000 C   0  0  0  0  0  0  0  0  0  0  0  0
    6.1283    5.7155    0.0000 C   0  0  0  0  0  0  0  0  0  0  0  0
    5.7155    5.0000    0.0000 Br  0  0  0  0  0  0  0  0  0  0  0  0
    5.7155    6.4310    0.0000 C   0  0  0  0  0  0  0  0  0  0  0  0
    5.0000    6.8438    0.0000 C   0  0  0  0  0  0  0  0  0  0  0  0
    6.1283    7.1465    0.0000 C   0  0  0  0  0  0  0  0  0  0  0  0
    6.9538    7.1465    0.0000 C   0  0  0  0  0  0  0  0  0  0  0  0
    8.6875    7.0914    0.0000 C   0  0  0  0  0  0  0  0  0  0  0  0
    9.4581    6.8438    0.0000 O   0  0  0  0  0  0  0  0  0  0  0  0
    9.4581    6.0182    0.0000 C   0  0  0  0  0  0  0  0  0  0  0  0
   10.1185    5.5229    0.0000 O   0  0  0  0  0  0  0  0  0  0  0  0
    5.0000    6.0182    0.0000 Cl  0  0  0  0  0  0  0  0  0  0  0  0
    8.8527    7.8895    0.0000 O   0  0  0  0  0  0  0  0  0  0  0  0
    8.0546    7.6418    0.0000 C   0  0  0  0  0  0  0  0  0  0  0  0
    9.6232    8.1372    0.0000 C   0  0  0  0  0  0  0  0  0  0  0  0
  1  2  1  1
  1  4  1  0
  1 10  1  0
  2  3  2  0
  2 11  1  0
  3 13  1  0
  4  5  1  0
  5  6  1  1
  5  7  1  0
  7  8  1  1
  7  9  1  0
  7 15  1  0
  9 10  1  0
 12 13  1  0
 13 14  2  0
 12 11  1  0
 11 17  1  6
 11 16  1  0
 16 18  1  0
M  END
>  <COMPOUND_ID>  (51) 
CMNPD19997

>  <MOLECULAR_FORMULA>  (51) 
C13H18BrClO3

>  <MOLECULAR_WEIGHT>  (51) 
337.6410000000001

>  <MOLECULAR_MASS>  (51) 
336.012784216

>  <ALOGP>  (51) 
3.3933000000000018

>  <ROTATABLE_BONDS>  (51) 
2

>  <HBA>  (51) 
3

>  <HBD>  (51) 
0

>  <POLAR_SURFACE_AREA>  (51) 
35.53

>  <AROMATIC_RINGS>  (51) 
0

>  <HEAVY_ATOMS>  (51) 
18

>  <QED_WEIGHTED>  (51) 
0.5721537770455344

>  <BLOOD_BRAIN_BARRIER_PENETRATION>  (51) 
0.248

>  <BLOOD_BRAIN_BARRIER_PENETRATION_LEVEL>  (51) 
1

>  <HUMAN_INTESTINAL_ABSORPTION_LEVEL>  (51) 
0

>  <AQUEOUS_SOLUBILITY>  (51) 
-4.347

>  <AQUEOUS_SOLUBILITY_LEVEL>  (51) 
2

>  <CYP2D6_BINDING_MODEL>  (51) 
false

>  <HEPATOTOXICITY_MODEL>  (51) 
true

>  <PLASMA_PROTEIN_BINDING_MODEL>  (51) 
true

>  <SMILES>  (51) 
[C@@]1([H])(CC[C@](Cl)(C)[C@H](Br)C1)C2=CC(=O)O[C@@]2(OC)C

>  <STANDARD_INCHI>  (51) 
InChI=1S/C13H18BrClO3/c1-12(15)5-4-8(6-10(12)14)9-7-11(16)18-13(9,2)17-3/h7-8,10H,4-6H2,1-3H3/t8-,10-,12-,13+/m1/s1

>  <STANDARD_INCHI_KEY>  (51) 
HZRBFPFRPXJJQB-DXLKZPDWSA-N

$$$$

     RDKit          2D

 19 20  0  0  0  0  0  0  0  0999 V2000
    9.8719    5.9083    0.0000 C   0  0  0  0  0  0  0  0  0  0  0  0
   10.5876    5.4955    0.0000 C   0  0  0  0  0  0  0  0  0  0  0  0
   11.3032    5.9083    0.0000 C   0  0  0  0  0  0  0  0  0  0  0  0
    9.7894    6.7066    0.0000 C   0  0  0  0  0  0  0  0  0  0  0  0
    8.9636    6.8992    0.0000 C   0  0  0  0  0  0  0  0  0  0  0  0
    8.5507    6.1836    0.0000 C   0  0  0  0  0  0  0  0  0  0  0  0
    9.1012    5.5505    0.0000 O   0  0  0  0  0  0  0  0  0  0  0  0
    7.7250    6.1010    0.0000 C   0  0  0  0  0  0  0  0  0  0  0  0
    7.3121    5.3854    0.0000 C   0  0  0  0  0  0  0  0  0  0  0  0
    6.5139    5.5505    0.0000 C   0  0  0  0  0  0  0  0  0  0  0  0
    5.9083    5.0000    0.0000 O   0  0  0  0  0  0  0  0  0  0  0  0
    6.4313    6.3763    0.0000 C   0  0  0  0  0  0  0  0  0  0  0  0
    5.7157    6.7891    0.0000 C   0  0  0  0  0  0  0  0  0  0  0  0
    5.0000    6.3763    0.0000 C   0  0  0  0  0  0  0  0  0  0  0  0
    7.1745    6.7066    0.0000 O   0  0  0  0  0  0  0  0  0  0  0  0
   10.3949    7.2295    0.0000 Cl  0  0  0  0  0  0  0  0  0  0  0  0
   12.0189    5.4955    0.0000 C   0  0  0  0  0  0  0  0  0  0  0  0
   12.7345    5.9083    0.0000 C   0  0  0  0  0  0  0  0  0  0  0  0
   13.4502    6.3212    0.0000 C   0  0  0  0  0  0  0  0  0  0  0  0
  1  2  1  0
  1  7  1  0
  1  4  1  0
  2  3  1  0
  3 17  2  0
  4  5  1  0
  4 16  1  0
  5  6  1  0
  6  7  1  0
  6  8  1  0
  8  9  1  0
  8 15  1  0
  9 10  1  0
 10 11  1  0
 10 12  1  0
 12 13  1  0
 12 15  1  0
 13 14  1  0
 17 18  1  0
 18 19  3  0
M  END
>  <COMPOUND_ID>  (52) 
CMNPD15878

>  <MOLECULAR_FORMULA>  (52) 
C15H21ClO3

>  <MOLECULAR_WEIGHT>  (52) 
284.783

>  <MOLECULAR_MASS>  (52) 
284.11792221200005

>  <ALOGP>  (52) 
2.2592

>  <ROTATABLE_BONDS>  (52) 
4

>  <HBA>  (52) 
3

>  <HBD>  (52) 
1

>  <POLAR_SURFACE_AREA>  (52) 
38.69

>  <AROMATIC_RINGS>  (52) 
0

>  <HEAVY_ATOMS>  (52) 
19

>  <QED_WEIGHTED>  (52) 
0.6356893964267746

>  <BLOOD_BRAIN_BARRIER_PENETRATION>  (52) 
0.11

>  <BLOOD_BRAIN_BARRIER_PENETRATION_LEVEL>  (52) 
1

>  <HUMAN_INTESTINAL_ABSORPTION_LEVEL>  (52) 
0

>  <AQUEOUS_SOLUBILITY>  (52) 
-3.207

>  <AQUEOUS_SOLUBILITY_LEVEL>  (52) 
3

>  <CYP2D6_BINDING_MODEL>  (52) 
false

>  <HEPATOTOXICITY_MODEL>  (52) 
true

>  <PLASMA_PROTEIN_BINDING_MODEL>  (52) 
true

>  <SMILES>  (52) 
C1(C(Cl)CC(C2OC(CC)C(O)C2)O1)C\C=C\C#C

>  <STANDARD_INCHI>  (52) 
InChI=1S/C15H21ClO3/c1-3-5-6-7-13-10(16)8-14(19-13)15-9-11(17)12(4-2)18-15/h1,5-6,10-15,17H,4,7-9H2,2H3/b6-5+

>  <STANDARD_INCHI_KEY>  (52) 
ADCOIPHYMHQKGS-AATRIKPKSA-N

$$$$

     RDKit          2D

 20 22  0  0  1  0  0  0  0  0999 V2000
    5.0000    6.4595    0.0000 C   0  0  0  0  0  0  0  0  0  0  0  0
    5.0000    7.1755    0.0000 C   0  0  0  0  0  0  0  0  0  0  0  0
    5.5783    6.1566    0.0000 C   0  0  0  0  0  0  0  0  0  0  0  0
    5.5508    7.5060    0.0000 C   0  0  0  0  0  0  0  0  0  0  0  0
    5.1377    8.0292    0.0000 Br  0  0  0  0  0  0  0  0  0  0  0  0
    5.8537    8.5249    0.0000 C   0  0  0  0  0  0  0  0  0  0  0  0
    6.1566    6.4595    0.0000 C   0  0  0  0  0  0  0  0  0  0  0  0
    6.9827    6.2392    0.0000 C   0  0  0  0  0  0  0  0  0  0  0  0
    7.7813    6.4595    0.0000 C   0  0  0  0  0  0  0  0  0  0  0  0
    7.7538    5.7986    0.0000 C   0  0  0  0  0  0  0  0  0  0  0  0
    8.2495    5.8812    0.0000 C   0  0  0  0  0  0  0  0  0  0  0  0
    7.0103    5.5232    0.0000 C   0  0  0  0  0  0  0  0  0  0  0  0
    6.7624    7.0654    0.0000 O   0  0  0  0  0  0  0  0  0  0  0  0
    5.6334    5.4131    0.0000 O   0  0  0  0  0  0  0  0  0  0  0  0
    7.8089    5.0275    0.0000 Cl  0  0  0  0  0  0  0  0  0  0  0  0
    6.1566    5.7986    0.0000 C   0  0  0  0  0  0  0  0  0  0  0  0
    6.5697    5.0000    0.0000 Br  0  0  0  0  0  0  0  0  0  0  0  0
    5.0551    5.6609    0.0000 C   0  0  0  0  0  0  0  0  0  0  0  0
    5.3580    9.0206    0.0000 C   0  0  0  0  0  0  0  0  0  0  0  0
    6.3218    9.0481    0.0000 C   0  0  0  0  0  0  0  0  0  0  0  0
  1  2  2  0
  1  3  1  0
  2  4  1  0
  3 14  1  0
  3  7  1  0
  4  5  1  0
  4  6  1  0
  4 13  1  0
  6  7  1  0
  7  8  1  0
  7 16  1  0
  8 13  1  0
  8  9  1  0
  9 10  1  0
 10 11  1  1
 10 12  1  0
 10 15  1  0
 12 16  1  0
 12 17  1  1
  3 18  1  1
  6 19  1  0
  6 20  1  0
M  END
>  <COMPOUND_ID>  (53) 
CMNPD729

>  <MOLECULAR_FORMULA>  (53) 
C15H21Br2ClO2

>  <MOLECULAR_WEIGHT>  (53) 
428.5920000000001

>  <MOLECULAR_MASS>  (53) 
425.9596817920001

>  <ALOGP>  (53) 
4.364600000000004

>  <ROTATABLE_BONDS>  (53) 
0

>  <HBA>  (53) 
2

>  <HBD>  (53) 
1

>  <POLAR_SURFACE_AREA>  (53) 
29.46

>  <AROMATIC_RINGS>  (53) 
0

>  <HEAVY_ATOMS>  (53) 
20

>  <QED_WEIGHTED>  (53) 
0.4587728843566092

>  <BLOOD_BRAIN_BARRIER_PENETRATION>  (53) 
0.422

>  <BLOOD_BRAIN_BARRIER_PENETRATION_LEVEL>  (53) 
1

>  <HUMAN_INTESTINAL_ABSORPTION_LEVEL>  (53) 
0

>  <AQUEOUS_SOLUBILITY>  (53) 
-4.988

>  <AQUEOUS_SOLUBILITY_LEVEL>  (53) 
2

>  <CYP2D6_BINDING_MODEL>  (53) 
false

>  <HEPATOTOXICITY_MODEL>  (53) 
true

>  <PLASMA_PROTEIN_BINDING_MODEL>  (53) 
true

>  <SMILES>  (53) 
C1=CC2(C(C)(C)C3(C(C[C@](Cl)([C@@H](Br)C3)C)O2)[C@]1(C)O)Br

>  <STANDARD_INCHI>  (53) 
InChI=1S/C15H21Br2ClO2/c1-11(2)14-7-9(16)12(3,18)8-10(14)20-15(11,17)6-5-13(14,4)19/h5-6,9-10,19H,7-8H2,1-4H3/t9-,10?,12-,13+,14?,15?/m0/s1

>  <STANDARD_INCHI_KEY>  (53) 
WNGMEQXERFPHIP-AFTJNSNVSA-N

$$$$

     RDKit          2D

 19 20  0  0  1  0  0  0  0  0999 V2000
    8.3015    7.4486    0.0000 C   0  0  0  0  0  0  0  0  0  0  0  0
    8.9618    7.9438    0.0000 C   0  0  0  0  0  0  0  0  0  0  0  0
    9.7322    7.6412    0.0000 C   0  0  0  0  0  0  0  0  0  0  0  0
    7.5312    7.7788    0.0000 C   0  0  0  0  0  0  0  0  0  0  0  0
    6.9534    7.1735    0.0000 O   0  0  0  0  0  0  0  0  0  0  0  0
    6.1280    7.1735    0.0000 C   0  0  0  0  0  0  0  0  0  0  0  0
    5.8254    6.4307    0.0000 C   0  0  0  0  0  0  0  0  0  0  0  0
    6.3206    5.7704    0.0000 C   0  0  0  0  0  0  0  0  0  0  0  0
    5.0000    6.3206    0.0000 Br  0  0  0  0  0  0  0  0  0  0  0  0
    5.5503    7.7788    0.0000 C   0  0  0  0  0  0  0  0  0  0  0  0
    5.5503    8.6041    0.0000 C   0  0  0  0  0  0  0  0  0  0  0  0
    6.1280    9.1819    0.0000 C   0  0  0  0  0  0  0  0  0  0  0  0
    5.3302    9.3745    0.0000 O   0  0  0  0  0  0  0  0  0  0  0  0
    6.9534    9.1819    0.0000 C   0  0  0  0  0  0  0  0  0  0  0  0
    7.5312    8.6041    0.0000 C   0  0  0  0  0  0  0  0  0  0  0  0
    8.3015    8.9068    0.0000 Cl  0  0  0  0  0  0  0  0  0  0  0  0
    6.0180    5.0000    0.0000 C   0  0  0  0  0  0  0  0  0  0  0  0
    9.8422    6.8158    0.0000 C   0  0  0  0  0  0  0  0  0  0  0  0
    9.9247    5.9905    0.0000 C   0  0  0  0  0  0  0  0  0  0  0  0
  1  2  1  0
  4  1  1  1
  2  3  2  0
  3 18  1  0
  4  5  1  0
  4 15  1  0
  5  6  1  0
  6  7  2  0
  6 10  1  0
  7  8  1  0
  7  9  1  0
  8 17  1  0
 11 10  1  1
 11 13  1  0
 11 12  1  0
 12 13  1  0
 12 14  1  1
 14 15  1  0
 15 16  1  1
 18 19  3  0
M  END
>  <COMPOUND_ID>  (54) 
CMNPD606

>  <MOLECULAR_FORMULA>  (54) 
C15H18BrClO2

>  <MOLECULAR_WEIGHT>  (54) 
345.6640000000001

>  <MOLECULAR_MASS>  (54) 
344.017869596

>  <ALOGP>  (54) 
4.136200000000003

>  <ROTATABLE_BONDS>  (54) 
3

>  <HBA>  (54) 
2

>  <HBD>  (54) 
0

>  <POLAR_SURFACE_AREA>  (54) 
21.759999999999998

>  <AROMATIC_RINGS>  (54) 
0

>  <HEAVY_ATOMS>  (54) 
19

>  <QED_WEIGHTED>  (54) 
0.43555532517622003

>  <BLOOD_BRAIN_BARRIER_PENETRATION>  (54) 
0.816

>  <BLOOD_BRAIN_BARRIER_PENETRATION_LEVEL>  (54) 
0

>  <HUMAN_INTESTINAL_ABSORPTION_LEVEL>  (54) 
0

>  <AQUEOUS_SOLUBILITY>  (54) 
-4.827

>  <AQUEOUS_SOLUBILITY_LEVEL>  (54) 
2

>  <CYP2D6_BINDING_MODEL>  (54) 
false

>  <HEPATOTOXICITY_MODEL>  (54) 
true

>  <PLASMA_PROTEIN_BINDING_MODEL>  (54) 
true

>  <SMILES>  (54) 
C([C@@H]1[C@H](Cl)C[C@H](O2)[C@H]2C\C(=C(/Br)\CC)\O1)\C=C/C#C

>  <STANDARD_INCHI>  (54) 
InChI=1S/C15H18BrClO2/c1-3-5-6-7-12-11(17)8-14-15(19-14)9-13(18-12)10(16)4-2/h1,5-6,11-12,14-15H,4,7-9H2,2H3/b6-5-,13-10+/t11-,12-,14+,15-/m1/s1

>  <STANDARD_INCHI_KEY>  (54) 
IPGHQCSIHTZTOJ-XUXREHNNSA-N

$$$$

     RDKit          2D

 19 20  0  0  1  0  0  0  0  0999 V2000
    7.8631    8.1935    0.0000 C   0  0  0  0  0  0  0  0  0  0  0  0
    7.8631    7.3676    0.0000 C   0  0  0  0  0  0  0  0  0  0  0  0
    8.5238    6.8445    0.0000 C   0  0  0  0  0  0  0  0  0  0  0  0
    9.3222    7.0372    0.0000 C   0  0  0  0  0  0  0  0  0  0  0  0
    9.6801    7.7805    0.0000 C   0  0  0  0  0  0  0  0  0  0  0  0
    9.3222    8.5238    0.0000 C   0  0  0  0  0  0  0  0  0  0  0  0
    8.5238    8.7166    0.0000 C   0  0  0  0  0  0  0  0  0  0  0  0
    8.2210    9.4874    0.0000 O   0  0  0  0  0  0  0  0  0  0  0  0
    7.3951    9.4874    0.0000 C   0  0  0  0  0  0  0  0  0  0  0  0
    7.1749    8.7166    0.0000 C   0  0  0  0  0  0  0  0  0  0  0  0
    6.8996   10.0931    0.0000 O   0  0  0  0  0  0  0  0  0  0  0  0
    6.4040    8.4413    0.0000 C   0  0  0  0  0  0  0  0  0  0  0  0
    5.7708    8.9919    0.0000 O   0  0  0  0  0  0  0  0  0  0  0  0
    5.0000    8.7166    0.0000 C   0  0  0  0  0  0  0  0  0  0  0  0
   10.5060    7.7805    0.0000 C   0  0  0  0  0  0  0  0  0  0  0  0
    8.3311    6.0461    0.0000 C   0  0  0  0  0  0  0  0  0  0  0  0
    7.5328    5.7984    0.0000 C   0  0  0  0  0  0  0  0  0  0  0  0
    6.9271    6.3765    0.0000 C   0  0  0  0  0  0  0  0  0  0  0  0
    7.3676    5.0000    0.0000 C   0  0  0  0  0  0  0  0  0  0  0  0
  1  2  1  1
  1  7  1  0
  1 10  1  0
  2  3  1  0
  3  4  1  0
  3 16  1  6
  4  5  1  0
  5  6  2  0
  5 15  1  0
  6  7  1  0
  7  8  1  6
  8  9  1  0
  9 10  1  0
  9 11  2  0
 10 12  1  1
 12 13  1  0
 13 14  1  0
 16 17  1  0
 17 18  1  0
 17 19  1  0
M  END
>  <COMPOUND_ID>  (55) 
CMNPD29876

>  <MOLECULAR_FORMULA>  (55) 
C16H26O3

>  <MOLECULAR_WEIGHT>  (55) 
266.381

>  <MOLECULAR_MASS>  (55) 
266.188194692

>  <ALOGP>  (55) 
3.1930000000000014

>  <ROTATABLE_BONDS>  (55) 
4

>  <HBA>  (55) 
3

>  <HBD>  (55) 
0

>  <POLAR_SURFACE_AREA>  (55) 
35.53

>  <AROMATIC_RINGS>  (55) 
0

>  <HEAVY_ATOMS>  (55) 
19

>  <QED_WEIGHTED>  (55) 
0.5788352071238905

>  <BLOOD_BRAIN_BARRIER_PENETRATION>  (55) 
0.331

>  <BLOOD_BRAIN_BARRIER_PENETRATION_LEVEL>  (55) 
1

>  <HUMAN_INTESTINAL_ABSORPTION_LEVEL>  (55) 
0

>  <AQUEOUS_SOLUBILITY>  (55) 
-4.296

>  <AQUEOUS_SOLUBILITY_LEVEL>  (55) 
2

>  <CYP2D6_BINDING_MODEL>  (55) 
false

>  <HEPATOTOXICITY_MODEL>  (55) 
false

>  <PLASMA_PROTEIN_BINDING_MODEL>  (55) 
true

>  <SMILES>  (55) 
[C@@]12([H])[C@]([H])(OC(=O)[C@@H]1COC)C=C(C)C[C@H](CC(C)C)C2

>  <STANDARD_INCHI>  (55) 
InChI=1S/C16H26O3/c1-10(2)5-12-6-11(3)7-15-13(8-12)14(9-18-4)16(17)19-15/h7,10,12-15H,5-6,8-9H2,1-4H3/t12-,13-,14+,15+/m0/s1

>  <STANDARD_INCHI_KEY>  (55) 
UFYSVAKQJSMIFZ-BYNSBNAKSA-N

$$$$

     RDKit          2D

 20 23  0  0  1  0  0  0  0  0999 V2000
    6.4899    7.3176    0.0000 C   0  0  0  0  0  0  0  0  0  0  0  0
    6.4899    6.5451    0.0000 C   0  0  0  0  0  0  0  0  0  0  0  0
    7.2349    6.2968    0.0000 C   0  0  0  0  0  0  0  0  0  0  0  0
    7.7039    6.9314    0.0000 C   0  0  0  0  0  0  0  0  0  0  0  0
    7.2349    7.5660    0.0000 C   0  0  0  0  0  0  0  0  0  0  0  0
    5.7450    7.5660    0.0000 C   0  0  0  0  0  0  0  0  0  0  0  0
    5.3035    6.9314    0.0000 O   0  0  0  0  0  0  0  0  0  0  0  0
    5.7450    6.2968    0.0000 C   0  0  0  0  0  0  0  0  0  0  0  0
    7.9798    7.7591    0.0000 C   0  0  0  0  0  0  0  0  0  0  0  0
    8.2005    8.5316    0.0000 C   0  0  0  0  0  0  0  0  0  0  0  0
    7.6487    9.0835    0.0000 C   0  0  0  0  0  0  0  0  0  0  0  0
    7.0969    9.6077    0.0000 C   0  0  0  0  0  0  0  0  0  0  0  0
    7.9798    6.2968    0.0000 Br  0  0  0  0  0  0  0  0  0  0  0  0
    8.4765    6.9314    0.0000 C   0  0  0  0  0  0  0  0  0  0  0  0
    8.8627    6.2692    0.0000 C   0  0  0  0  0  0  0  0  0  0  0  0
    7.7867    5.7450    0.0000 O   0  0  0  0  0  0  0  0  0  0  0  0
    7.5935    5.0000    0.0000 C   0  0  0  0  0  0  0  0  0  0  0  0
    6.8486    5.6346    0.0000 O   0  0  0  0  0  0  0  0  0  0  0  0
    5.5518    5.5518    0.0000 C   0  0  0  0  0  0  0  0  0  0  0  0
    6.2140    6.0760    0.0000 C   0  0  0  0  0  0  0  0  0  0  0  0
  1  2  1  0
  1  5  1  0
  1  6  1  1
  2  3  1  1
  2  8  1  0
  3  4  1  0
  3 16  1  1
  3 18  1  0
  4  5  1  0
  4 13  1  6
  4 14  1  0
  5  9  1  1
  6  7  1  0
  6 20  1  1
  8  7  1  1
  8 19  1  0
  9 10  2  0
 10 11  1  0
 11 12  3  0
 14 15  1  0
 16 17  1  0
 19 18  1  0
 19 20  1  6
M  END
>  <COMPOUND_ID>  (56) 
CMNPD29287

>  <MOLECULAR_FORMULA>  (56) 
C16H19BrO3

>  <MOLECULAR_WEIGHT>  (56) 
339.2290000000001

>  <MOLECULAR_MASS>  (56) 
338.051756568

>  <ALOGP>  (56) 
2.494300000000001

>  <ROTATABLE_BONDS>  (56) 
3

>  <HBA>  (56) 
3

>  <HBD>  (56) 
0

>  <POLAR_SURFACE_AREA>  (56) 
27.69

>  <AROMATIC_RINGS>  (56) 
0

>  <HEAVY_ATOMS>  (56) 
20

>  <QED_WEIGHTED>  (56) 
0.584137432848794

>  <BLOOD_BRAIN_BARRIER_PENETRATION>  (56) 
0.303

>  <BLOOD_BRAIN_BARRIER_PENETRATION_LEVEL>  (56) 
1

>  <HUMAN_INTESTINAL_ABSORPTION_LEVEL>  (56) 
0

>  <AQUEOUS_SOLUBILITY>  (56) 
-4.431

>  <AQUEOUS_SOLUBILITY_LEVEL>  (56) 
2

>  <CYP2D6_BINDING_MODEL>  (56) 
false

>  <HEPATOTOXICITY_MODEL>  (56) 
false

>  <PLASMA_PROTEIN_BINDING_MODEL>  (56) 
true

>  <SMILES>  (56) 
[C@]12([H])[C@]([H])([C@@]([H])([C@@H](C3)O4)O[C@H]13)[C@]4(OC)[C@@](CC)(Br)[C@]2([H])\C=C/C#C

>  <STANDARD_INCHI>  (56) 
InChI=1S/C16H19BrO3/c1-4-6-7-9-12-10-8-11-14(19-10)13(12)16(18-3,20-11)15(9,17)5-2/h1,6-7,9-14H,5,8H2,2-3H3/b7-6-/t9-,10+,11-,12-,13-,14-,15+,16-/m1/s1

>  <STANDARD_INCHI_KEY>  (56) 
IKEWAOKGFUGNOH-ODPHLRAGSA-N

$$$$

     RDKit          2D

 19 21  0  0  1  0  0  0  0  0999 V2000
    5.0000    6.2386    0.0000 C   0  0  0  0  0  0  0  0  0  0  0  0
    5.7156    5.8257    0.0000 C   0  0  0  0  0  0  0  0  0  0  0  0
    6.4313    6.2386    0.0000 C   0  0  0  0  0  0  0  0  0  0  0  0
    5.0000    7.0644    0.0000 C   0  0  0  0  0  0  0  0  0  0  0  0
    5.7156    7.4772    0.0000 C   0  0  0  0  0  0  0  0  0  0  0  0
    6.4313    7.0644    0.0000 C   0  0  0  0  0  0  0  0  0  0  0  0
    7.1469    7.4772    0.0000 C   0  0  0  0  0  0  0  0  0  0  0  0
    7.1469    8.3030    0.0000 O   0  0  0  0  0  0  0  0  0  0  0  0
    7.8626    7.0644    0.0000 C   0  0  0  0  0  0  0  0  0  0  0  0
    8.6333    7.3396    0.0000 C   0  0  0  0  0  0  0  0  0  0  0  0
    9.1287    6.6515    0.0000 C   0  0  0  0  0  0  0  0  0  0  0  0
    9.9545    6.6515    0.0000 C   0  0  0  0  0  0  0  0  0  0  0  0
   10.3674    7.3671    0.0000 C   0  0  0  0  0  0  0  0  0  0  0  0
   10.7802    6.6515    0.0000 O   0  0  0  0  0  0  0  0  0  0  0  0
   10.3674    5.9634    0.0000 C   0  0  0  0  0  0  0  0  0  0  0  0
    8.6333    5.9909    0.0000 O   0  0  0  0  0  0  0  0  0  0  0  0
    7.8626    6.2386    0.0000 C   0  0  0  0  0  0  0  0  0  0  0  0
    7.1469    5.8257    0.0000 C   0  0  0  0  0  0  0  0  0  0  0  0
    7.1469    5.0000    0.0000 O   0  0  0  0  0  0  0  0  0  0  0  0
  1  2  2  0
  1  4  1  0
  2  3  1  0
  3 18  1  0
  3  6  2  0
  4  5  2  0
  5  6  1  0
  6  7  1  0
  7  8  2  0
  7  9  1  0
  9 10  1  1
  9 17  1  0
 10 11  1  0
 11 12  1  1
 11 16  1  0
 12 13  1  0
 12 14  1  0
 12 15  1  0
 17 16  1  1
 17 18  1  0
 18 19  1  6
M  END
>  <COMPOUND_ID>  (57) 
CMNPD17504

>  <MOLECULAR_FORMULA>  (57) 
C15H18O4

>  <MOLECULAR_WEIGHT>  (57) 
262.30499999999995

>  <MOLECULAR_MASS>  (57) 
262.120509056

>  <ALOGP>  (57) 
1.4608999999999999

>  <ROTATABLE_BONDS>  (57) 
1

>  <HBA>  (57) 
4

>  <HBD>  (57) 
2

>  <POLAR_SURFACE_AREA>  (57) 
66.76

>  <AROMATIC_RINGS>  (57) 
1

>  <HEAVY_ATOMS>  (57) 
19

>  <QED_WEIGHTED>  (57) 
0.8038131617378967

>  <BLOOD_BRAIN_BARRIER_PENETRATION>  (57) 
-0.935

>  <BLOOD_BRAIN_BARRIER_PENETRATION_LEVEL>  (57) 
3

>  <HUMAN_INTESTINAL_ABSORPTION_LEVEL>  (57) 
0

>  <AQUEOUS_SOLUBILITY>  (57) 
-1.869

>  <AQUEOUS_SOLUBILITY_LEVEL>  (57) 
4

>  <CYP2D6_BINDING_MODEL>  (57) 
false

>  <HEPATOTOXICITY_MODEL>  (57) 
false

>  <PLASMA_PROTEIN_BINDING_MODEL>  (57) 
true

>  <SMILES>  (57) 
c1ccc(C([C@]2([H])[C@H]([C@@H]3O)O[C@H](C(C)(O)C)C2)=O)c3c1

>  <STANDARD_INCHI>  (57) 
InChI=1S/C15H18O4/c1-15(2,18)11-7-10-12(16)8-5-3-4-6-9(8)13(17)14(10)19-11/h3-6,10-11,13-14,17-18H,7H2,1-2H3/t10-,11+,13-,14-/m1/s1

>  <STANDARD_INCHI_KEY>  (57) 
BVAYYWKYGJBBHG-ZMJPVWNMSA-N

$$$$

     RDKit          2D

 13 12  0  0  0  0  0  0  0  0999 V2000
    5.0000    5.8258    0.0000 C   0  0  0  0  0  0  0  0  0  0  0  0
    5.7157    6.2387    0.0000 C   0  0  0  0  0  0  0  0  0  0  0  0
    6.4313    5.8258    0.0000 C   0  0  0  0  0  0  0  0  0  0  0  0
    5.7157    7.0644    0.0000 C   0  0  0  0  0  0  0  0  0  0  0  0
    7.1470    6.2387    0.0000 C   0  0  0  0  0  0  0  0  0  0  0  0
    7.8627    5.8258    0.0000 C   0  0  0  0  0  0  0  0  0  0  0  0
    8.5784    6.2387    0.0000 C   0  0  0  0  0  0  0  0  0  0  0  0
    8.5784    7.0644    0.0000 C   0  0  0  0  0  0  0  0  0  0  0  0
    9.2940    7.4498    0.0000 Cl  0  0  0  0  0  0  0  0  0  0  0  0
    9.2940    5.8258    0.0000 C   0  0  0  0  0  0  0  0  0  0  0  0
   10.0097    6.2387    0.0000 C   0  0  0  0  0  0  0  0  0  0  0  0
   10.7254    5.8258    0.0000 Cl  0  0  0  0  0  0  0  0  0  0  0  0
    6.4313    5.0000    0.0000 O   0  0  0  0  0  0  0  0  0  0  0  0
  1  2  1  0
  2  3  1  0
  2  4  2  0
  3  5  1  0
  3 13  1  0
  5  6  1  0
  6  7  1  0
  7  8  1  0
  7 10  2  0
  8  9  1  0
 10 11  1  0
 11 12  1  0
M  END
>  <COMPOUND_ID>  (58) 
CMNPD3701

>  <MOLECULAR_FORMULA>  (58) 
C10H16Cl2O

>  <MOLECULAR_WEIGHT>  (58) 
223.143

>  <MOLECULAR_MASS>  (58) 
222.057820492

>  <ALOGP>  (58) 
3.107600000000002

>  <ROTATABLE_BONDS>  (58) 
6

>  <HBA>  (58) 
1

>  <HBD>  (58) 
1

>  <POLAR_SURFACE_AREA>  (58) 
20.23

>  <AROMATIC_RINGS>  (58) 
0

>  <HEAVY_ATOMS>  (58) 
13

>  <QED_WEIGHTED>  (58) 
0.5414521302703533

>  <BLOOD_BRAIN_BARRIER_PENETRATION>  (58) 
0.507

>  <BLOOD_BRAIN_BARRIER_PENETRATION_LEVEL>  (58) 
1

>  <HUMAN_INTESTINAL_ABSORPTION_LEVEL>  (58) 
0

>  <AQUEOUS_SOLUBILITY>  (58) 
-2.667

>  <AQUEOUS_SOLUBILITY_LEVEL>  (58) 
3

>  <CYP2D6_BINDING_MODEL>  (58) 
false

>  <HEPATOTOXICITY_MODEL>  (58) 
true

>  <PLASMA_PROTEIN_BINDING_MODEL>  (58) 
true

>  <SMILES>  (58) 
CC(=C)C(O)CC\C(=C\CCl)\CCl

>  <STANDARD_INCHI>  (58) 
InChI=1S/C10H16Cl2O/c1-8(2)10(13)4-3-9(7-12)5-6-11/h5,10,13H,1,3-4,6-7H2,2H3/b9-5-

>  <STANDARD_INCHI_KEY>  (58) 
ZYGUWNRHQQMKCV-UITAMQMPSA-N

$$$$

     RDKit          2D

 14 14  0  0  1  0  0  0  0  0999 V2000
    6.4311    7.3668    0.0000 C   0  0  0  0  0  0  0  0  0  0  0  0
    7.1466    6.9540    0.0000 C   0  0  0  0  0  0  0  0  0  0  0  0
    7.1466    6.1284    0.0000 C   0  0  0  0  0  0  0  0  0  0  0  0
    5.7155    6.9540    0.0000 C   0  0  0  0  0  0  0  0  0  0  0  0
    7.8622    7.3668    0.0000 C   0  0  0  0  0  0  0  0  0  0  0  0
    7.8622    8.1924    0.0000 C   0  0  0  0  0  0  0  0  0  0  0  0
    8.5777    8.5777    0.0000 Cl  0  0  0  0  0  0  0  0  0  0  0  0
    8.5777    6.9540    0.0000 O   0  0  0  0  0  0  0  0  0  0  0  0
    6.4311    5.7155    0.0000 C   0  0  0  0  0  0  0  0  0  0  0  0
    6.8439    5.0000    0.0000 C   0  0  0  0  0  0  0  0  0  0  0  0
    6.4311    8.1924    0.0000 O   0  0  0  0  0  0  0  0  0  0  0  0
    5.7155    6.1284    0.0000 C   0  0  0  0  0  0  0  0  0  0  0  0
    6.0183    5.0000    0.0000 C   0  0  0  0  0  0  0  0  0  0  0  0
    5.0000    5.7155    0.0000 Br  0  0  0  0  0  0  0  0  0  0  0  0
  1  2  1  0
  1  4  1  0
  1 11  1  6
  2  3  2  0
  2  5  1  0
  3  9  1  0
  4 12  1  0
  5  6  1  0
  5  8  1  0
  6  7  1  0
  9 10  1  0
  9 12  1  0
  9 13  1  0
 12 14  1  1
M  END
>  <COMPOUND_ID>  (59) 
CMNPD676

>  <MOLECULAR_FORMULA>  (59) 
C10H16BrClO2

>  <MOLECULAR_WEIGHT>  (59) 
283.593

>  <MOLECULAR_MASS>  (59) 
282.002219532

>  <ALOGP>  (59) 
2.0667999999999997

>  <ROTATABLE_BONDS>  (59) 
2

>  <HBA>  (59) 
2

>  <HBD>  (59) 
2

>  <POLAR_SURFACE_AREA>  (59) 
40.46

>  <AROMATIC_RINGS>  (59) 
0

>  <HEAVY_ATOMS>  (59) 
14

>  <QED_WEIGHTED>  (59) 
0.6015454336577013

>  <BLOOD_BRAIN_BARRIER_PENETRATION>  (59) 
-0.25

>  <BLOOD_BRAIN_BARRIER_PENETRATION_LEVEL>  (59) 
2

>  <HUMAN_INTESTINAL_ABSORPTION_LEVEL>  (59) 
0

>  <AQUEOUS_SOLUBILITY>  (59) 
-1.9

>  <AQUEOUS_SOLUBILITY_LEVEL>  (59) 
4

>  <CYP2D6_BINDING_MODEL>  (59) 
false

>  <HEPATOTOXICITY_MODEL>  (59) 
true

>  <PLASMA_PROTEIN_BINDING_MODEL>  (59) 
true

>  <SMILES>  (59) 
[C@H]1(O)C[C@H](Br)C(C)(C)C=C1C(O)CCl

>  <STANDARD_INCHI>  (59) 
InChI=1S/C10H16BrClO2/c1-10(2)4-6(8(14)5-12)7(13)3-9(10)11/h4,7-9,13-14H,3,5H2,1-2H3/t7-,8?,9-/m0/s1

>  <STANDARD_INCHI_KEY>  (59) 
WNVHLTPVXGNQOI-SMOXQLQSSA-N

$$$$

     RDKit          2D

 18 18  0  0  1  0  0  0  0  0999 V2000
    7.8667    6.2404    0.0000 C   0  0  0  0  0  0  0  0  0  0  0  0
    8.5834    5.8269    0.0000 C   0  0  0  0  0  0  0  0  0  0  0  0
    8.5834    5.0000    0.0000 Br  0  0  0  0  0  0  0  0  0  0  0  0
    7.8667    7.0673    0.0000 C   0  0  0  0  0  0  0  0  0  0  0  0
    7.1500    7.4808    0.0000 C   0  0  0  0  0  0  0  0  0  0  0  0
    6.4333    7.0673    0.0000 C   0  0  0  0  0  0  0  0  0  0  0  0
    7.1500    8.3077    0.0000 C   0  0  0  0  0  0  0  0  0  0  0  0
    6.4333    8.6936    0.0000 O   0  0  0  0  0  0  0  0  0  0  0  0
    8.5834    7.4808    0.0000 C   0  0  0  0  0  0  0  0  0  0  0  0
    9.3000    7.0673    0.0000 C   0  0  0  0  0  0  0  0  0  0  0  0
    9.3000    6.2404    0.0000 C   0  0  0  0  0  0  0  0  0  0  0  0
   10.1270    6.2404    0.0000 C   0  0  0  0  0  0  0  0  0  0  0  0
    9.7135    5.5237    0.0000 Cl  0  0  0  0  0  0  0  0  0  0  0  0
    7.8667    8.6936    0.0000 C   0  0  0  0  0  0  0  0  0  0  0  0
    5.7167    7.4808    0.0000 C   0  0  0  0  0  0  0  0  0  0  0  0
    5.7167    8.3077    0.0000 O   0  0  0  0  0  0  0  0  0  0  0  0
    5.0000    8.6936    0.0000 C   0  0  0  0  0  0  0  0  0  0  0  0
    5.0000    7.0673    0.0000 O   0  0  0  0  0  0  0  0  0  0  0  0
  1  2  1  0
  1  4  1  0
  2  3  1  1
  2 11  1  0
  4  5  1  1
  4  9  1  0
  5  6  2  0
  5  7  1  0
  6 15  1  0
  7  8  2  0
  7 14  1  0
  9 10  1  0
 10 11  1  0
 11 12  1  1
 11 13  1  0
 15 16  1  0
 15 18  2  0
 16 17  1  0
M  END
>  <COMPOUND_ID>  (60) 
CMNPD2632

>  <MOLECULAR_FORMULA>  (60) 
C13H18BrClO3

>  <MOLECULAR_WEIGHT>  (60) 
337.6410000000001

>  <MOLECULAR_MASS>  (60) 
336.01278421599994

>  <ALOGP>  (60) 
3.2359000000000018

>  <ROTATABLE_BONDS>  (60) 
3

>  <HBA>  (60) 
3

>  <HBD>  (60) 
0

>  <POLAR_SURFACE_AREA>  (60) 
43.370000000000005

>  <AROMATIC_RINGS>  (60) 
0

>  <HEAVY_ATOMS>  (60) 
18

>  <QED_WEIGHTED>  (60) 
0.45098027735016205

>  <BLOOD_BRAIN_BARRIER_PENETRATION>  (60) 
0.106

>  <BLOOD_BRAIN_BARRIER_PENETRATION_LEVEL>  (60) 
1

>  <HUMAN_INTESTINAL_ABSORPTION_LEVEL>  (60) 
0

>  <AQUEOUS_SOLUBILITY>  (60) 
-3.886

>  <AQUEOUS_SOLUBILITY_LEVEL>  (60) 
3

>  <CYP2D6_BINDING_MODEL>  (60) 
false

>  <HEPATOTOXICITY_MODEL>  (60) 
true

>  <PLASMA_PROTEIN_BINDING_MODEL>  (60) 
true

>  <SMILES>  (60) 
C1[C@H](CC[C@@](Cl)(C)[C@H]1Br)\C(\C(C)=O)=C\C(=O)OC

>  <STANDARD_INCHI>  (60) 
InChI=1S/C13H18BrClO3/c1-8(16)10(7-12(17)18-3)9-4-5-13(2,15)11(14)6-9/h7,9,11H,4-6H2,1-3H3/b10-7+/t9-,11-,13-/m0/s1

>  <STANDARD_INCHI_KEY>  (60) 
QTMNXLZAJOBDAZ-WPQGTMSUSA-N

$$$$

     RDKit          2D

 20 22  0  0  1  0  0  0  0  0999 V2000
    7.1741    6.3485    0.0000 C   0  0  0  0  0  0  0  0  0  0  0  0
    7.6970    5.7155    0.0000 C   0  0  0  0  0  0  0  0  0  0  0  0
    7.2842    5.0000    0.0000 O   0  0  0  0  0  0  0  0  0  0  0  0
    6.4035    6.1008    0.0000 C   0  0  0  0  0  0  0  0  0  0  0  0
    6.6237    5.3302    0.0000 C   0  0  0  0  0  0  0  0  0  0  0  0
    5.8256    5.4954    0.0000 C   0  0  0  0  0  0  0  0  0  0  0  0
    5.7981    6.6787    0.0000 C   0  0  0  0  0  0  0  0  0  0  0  0
    5.0000    6.4311    0.0000 Br  0  0  0  0  0  0  0  0  0  0  0  0
    5.9632    7.4768    0.0000 C   0  0  0  0  0  0  0  0  0  0  0  0
    6.7613    7.7245    0.0000 C   0  0  0  0  0  0  0  0  0  0  0  0
    7.3668    7.1466    0.0000 C   0  0  0  0  0  0  0  0  0  0  0  0
    7.4768    7.9722    0.0000 C   0  0  0  0  0  0  0  0  0  0  0  0
    8.1098    7.5319    0.0000 O   0  0  0  0  0  0  0  0  0  0  0  0
    8.5226    5.7155    0.0000 C   0  0  0  0  0  0  0  0  0  0  0  0
    9.0455    6.3485    0.0000 C   0  0  0  0  0  0  0  0  0  0  0  0
    8.8529    7.1466    0.0000 C   0  0  0  0  0  0  0  0  0  0  0  0
    9.5684    7.5869    0.0000 C   0  0  0  0  0  0  0  0  0  0  0  0
   10.1738    7.0365    0.0000 O   0  0  0  0  0  0  0  0  0  0  0  0
    9.8711    6.2935    0.0000 C   0  0  0  0  0  0  0  0  0  0  0  0
   10.2839    5.5779    0.0000 O   0  0  0  0  0  0  0  0  0  0  0  0
  1  2  1  0
  1  4  1  1
  1 11  1  0
  2  3  1  1
  2 14  1  0
  4  5  1  0
  4  6  1  0
  4  7  1  0
  7  8  1  1
  7  9  1  0
  9 10  1  0
 10 11  1  0
 11 12  1  1
 11 13  1  0
 16 13  1  0
 14 15  2  0
 15 16  1  0
 15 19  1  0
 16 17  1  1
 17 18  1  0
 18 19  1  0
 19 20  2  0
M  END
>  <COMPOUND_ID>  (61) 
CMNPD756

>  <MOLECULAR_FORMULA>  (61) 
C15H21BrO4

>  <MOLECULAR_WEIGHT>  (61) 
345.23300000000006

>  <MOLECULAR_MASS>  (61) 
344.06232125199995

>  <ALOGP>  (61) 
2.1877000000000004

>  <ROTATABLE_BONDS>  (61) 
0

>  <HBA>  (61) 
4

>  <HBD>  (61) 
1

>  <POLAR_SURFACE_AREA>  (61) 
55.76

>  <AROMATIC_RINGS>  (61) 
0

>  <HEAVY_ATOMS>  (61) 
20

>  <QED_WEIGHTED>  (61) 
0.540187834283345

>  <BLOOD_BRAIN_BARRIER_PENETRATION>  (61) 
-0.454

>  <BLOOD_BRAIN_BARRIER_PENETRATION_LEVEL>  (61) 
2

>  <HUMAN_INTESTINAL_ABSORPTION_LEVEL>  (61) 
0

>  <AQUEOUS_SOLUBILITY>  (61) 
-3.457

>  <AQUEOUS_SOLUBILITY_LEVEL>  (61) 
3

>  <CYP2D6_BINDING_MODEL>  (61) 
false

>  <HEPATOTOXICITY_MODEL>  (61) 
true

>  <PLASMA_PROTEIN_BINDING_MODEL>  (61) 
true

>  <SMILES>  (61) 
[C@]12([H])[C@](O[C@@]([H])(COC3=O)C3=C[C@H]1O)(C)CC[C@H](Br)C2(C)C

>  <STANDARD_INCHI>  (61) 
InChI=1S/C15H21BrO4/c1-14(2)11(16)4-5-15(3)12(14)9(17)6-8-10(20-15)7-19-13(8)18/h6,9-12,17H,4-5,7H2,1-3H3/t9-,10+,11+,12+,15+/m1/s1

>  <STANDARD_INCHI_KEY>  (61) 
YGUXFWBBYGJSHK-SQRMYFJTSA-N

$$$$

     RDKit          2D

 18 20  0  0  1  0  0  0  0  0999 V2000
    6.3739    6.3464    0.0000 C   0  0  0  0  0  0  0  0  0  0  0  0
    5.7969    6.8685    0.0000 C   0  0  0  0  0  0  0  0  0  0  0  0
    6.1266    7.6104    0.0000 C   0  0  0  0  0  0  0  0  0  0  0  0
    6.9235    7.5005    0.0000 C   0  0  0  0  0  0  0  0  0  0  0  0
    7.0609    6.7037    0.0000 C   0  0  0  0  0  0  0  0  0  0  0  0
    7.1433    5.8518    0.0000 C   0  0  0  0  0  0  0  0  0  0  0  0
    7.7753    5.4946    0.0000 C   0  0  0  0  0  0  0  0  0  0  0  0
    8.5172    5.8793    0.0000 C   0  0  0  0  0  0  0  0  0  0  0  0
    8.5172    6.7037    0.0000 C   0  0  0  0  0  0  0  0  0  0  0  0
    7.8303    7.1433    0.0000 C   0  0  0  0  0  0  0  0  0  0  0  0
    9.0943    5.8518    0.0000 C   0  0  0  0  0  0  0  0  0  0  0  0
    7.0609    5.0824    0.0000 O   0  0  0  0  0  0  0  0  0  0  0  0
    8.5172    5.0000    0.0000 Cl  0  0  0  0  0  0  0  0  0  0  0  0
    5.8243    5.7969    0.0000 C   0  0  0  0  0  0  0  0  0  0  0  0
    6.9235    8.2699    0.0000 C   0  0  0  0  0  0  0  0  0  0  0  0
    7.5830    7.9402    0.0000 C   0  0  0  0  0  0  0  0  0  0  0  0
    5.7694    8.2699    0.0000 C   0  0  0  0  0  0  0  0  0  0  0  0
    5.0000    8.2699    0.0000 O   0  0  0  0  0  0  0  0  0  0  0  0
 17 18  2  0
  3 17  1  0
  1  2  1  0
  1  5  1  0
  1 12  1  0
  2  3  2  0
  3  4  1  0
  4  5  1  0
  5  6  1  0
  5 10  1  6
  6  7  1  0
  7  8  1  0
  8  9  1  0
  8 11  1  1
  8 13  1  0
  9 10  1  0
  1 14  1  6
  7 12  1  6
  4 15  1  0
  4 16  1  0
M  END
>  <COMPOUND_ID>  (62) 
CMNPD737

>  <MOLECULAR_FORMULA>  (62) 
C15H21ClO2

>  <MOLECULAR_WEIGHT>  (62) 
268.784

>  <MOLECULAR_MASS>  (62) 
268.123007592

>  <ALOGP>  (62) 
3.4768000000000026

>  <ROTATABLE_BONDS>  (62) 
1

>  <HBA>  (62) 
2

>  <HBD>  (62) 
0

>  <POLAR_SURFACE_AREA>  (62) 
26.3

>  <AROMATIC_RINGS>  (62) 
0

>  <HEAVY_ATOMS>  (62) 
18

>  <QED_WEIGHTED>  (62) 
0.537626282079159

>  <BLOOD_BRAIN_BARRIER_PENETRATION>  (62) 
0.226

>  <BLOOD_BRAIN_BARRIER_PENETRATION_LEVEL>  (62) 
1

>  <HUMAN_INTESTINAL_ABSORPTION_LEVEL>  (62) 
0

>  <AQUEOUS_SOLUBILITY>  (62) 
-4.332

>  <AQUEOUS_SOLUBILITY_LEVEL>  (62) 
2

>  <CYP2D6_BINDING_MODEL>  (62) 
false

>  <HEPATOTOXICITY_MODEL>  (62) 
false

>  <PLASMA_PROTEIN_BINDING_MODEL>  (62) 
true

>  <SMILES>  (62) 
[C@]12(C)[C@]3(C[C@@H](O1)[C@](Cl)(C)CC3)C(C)(C)C(=C2)C=O

>  <STANDARD_INCHI>  (62) 
InChI=1S/C15H21ClO2/c1-12(2)10(9-17)7-14(4)15(12)6-5-13(3,16)11(8-15)18-14/h7,9,11H,5-6,8H2,1-4H3/t11-,13+,14+,15-/m1/s1

>  <STANDARD_INCHI_KEY>  (62) 
ZFIOMRPWJXWTDM-UQOMUDLDSA-N

$$$$

     RDKit          2D

 17 16  0  0  1  0  0  0  0  0999 V2000
   13.0988    6.2396    0.0000 C   0  0  0  0  0  0  0  0  0  0  0  0
   13.9252    6.2396    0.0000 C   0  0  0  0  0  0  0  0  0  0  0  0
   12.3826    5.8264    0.0000 C   0  0  0  0  0  0  0  0  0  0  0  0
   14.6414    5.8264    0.0000 C   0  0  0  0  0  0  0  0  0  0  0  0
   15.3576    5.4132    0.0000 C   0  0  0  0  0  0  0  0  0  0  0  0
    7.9751    6.2396    0.0000 C   0  0  0  0  0  0  0  0  0  0  0  0
    8.6913    5.8264    0.0000 C   0  0  0  0  0  0  0  0  0  0  0  0
    9.5177    5.8264    0.0000 C   0  0  0  0  0  0  0  0  0  0  0  0
    7.2588    5.8264    0.0000 C   0  0  0  0  0  0  0  0  0  0  0  0
    6.4324    5.8264    0.0000 C   0  0  0  0  0  0  0  0  0  0  0  0
    5.7162    6.2396    0.0000 C   0  0  0  0  0  0  0  0  0  0  0  0
    5.0000    5.8264    0.0000 C   0  0  0  0  0  0  0  0  0  0  0  0
   10.2339    6.2396    0.0000 C   0  0  0  0  0  0  0  0  0  0  0  0
   10.9501    5.8264    0.0000 C   0  0  0  0  0  0  0  0  0  0  0  0
   11.6663    6.2396    0.0000 C   0  0  0  0  0  0  0  0  0  0  0  0
   10.9501    5.0000    0.0000 Cl  0  0  0  0  0  0  0  0  0  0  0  0
   11.6663    7.0385    0.0000 O   0  0  0  0  0  0  0  0  0  0  0  0
  1  2  2  0
  1  3  1  0
  2  4  1  0
  3 15  1  0
  4  5  3  0
  6  7  1  0
  6  9  1  0
  7  8  2  0
  8 13  1  0
  9 10  2  0
 10 11  1  0
 11 12  1  0
 13 14  1  0
 14 15  1  0
 14 16  1  1
 15 17  1  1
M  END
>  <COMPOUND_ID>  (63) 
CMNPD4756

>  <MOLECULAR_FORMULA>  (63) 
C15H21ClO

>  <MOLECULAR_WEIGHT>  (63) 
252.78499999999997

>  <MOLECULAR_MASS>  (63) 
252.128092972

>  <ALOGP>  (63) 
3.8368000000000033

>  <ROTATABLE_BONDS>  (63) 
8

>  <HBA>  (63) 
1

>  <HBD>  (63) 
1

>  <POLAR_SURFACE_AREA>  (63) 
20.23

>  <AROMATIC_RINGS>  (63) 
0

>  <HEAVY_ATOMS>  (63) 
17

>  <QED_WEIGHTED>  (63) 
0.39542723752878534

>  <BLOOD_BRAIN_BARRIER_PENETRATION>  (63) 
1.082

>  <BLOOD_BRAIN_BARRIER_PENETRATION_LEVEL>  (63) 
0

>  <HUMAN_INTESTINAL_ABSORPTION_LEVEL>  (63) 
0

>  <AQUEOUS_SOLUBILITY>  (63) 
-4.018

>  <AQUEOUS_SOLUBILITY_LEVEL>  (63) 
2

>  <CYP2D6_BINDING_MODEL>  (63) 
false

>  <HEPATOTOXICITY_MODEL>  (63) 
false

>  <PLASMA_PROTEIN_BINDING_MODEL>  (63) 
true

>  <SMILES>  (63) 
C(/C[C@H](O)[C@@H](Cl)C\C=C/C\C=C/CC)=C/C#C

>  <STANDARD_INCHI>  (63) 
InChI=1S/C15H21ClO/c1-3-5-7-8-9-11-12-14(16)15(17)13-10-6-4-2/h2,5-7,9-11,14-15,17H,3,8,12-13H2,1H3/b7-5-,10-6-,11-9-/t14-,15-/m0/s1

>  <STANDARD_INCHI_KEY>  (63) 
KGHXRSHHDUOLQI-IWPJVMGTSA-N

$$$$

     RDKit          2D

 11 10  0  0  0  0  0  0  0  0999 V2000
    7.1586    5.8302    0.0000 C   0  0  0  0  0  0  0  0  0  0  0  0
    6.4390    6.2453    0.0000 C   0  0  0  0  0  0  0  0  0  0  0  0
    5.7195    5.8302    0.0000 C   0  0  0  0  0  0  0  0  0  0  0  0
    7.1586    5.0000    0.0000 O   0  0  0  0  0  0  0  0  0  0  0  0
    5.0000    6.2453    0.0000 Cl  0  0  0  0  0  0  0  0  0  0  0  0
    6.4390    7.0479    0.0000 C   0  0  0  0  0  0  0  0  0  0  0  0
    7.8781    6.2453    0.0000 C   0  0  0  0  0  0  0  0  0  0  0  0
    8.5976    5.8302    0.0000 C   0  0  0  0  0  0  0  0  0  0  0  0
    9.3171    6.2453    0.0000 C   0  0  0  0  0  0  0  0  0  0  0  0
    9.3171    7.0479    0.0000 Cl  0  0  0  0  0  0  0  0  0  0  0  0
   10.0366    5.8302    0.0000 C   0  0  0  0  0  0  0  0  0  0  0  0
  1  2  1  0
  1  4  1  0
  1  7  1  0
  2  3  2  0
  2  6  1  0
  3  5  1  0
  7  8  1  0
  8  9  2  0
  9 10  1  0
  9 11  1  0
M  END
>  <COMPOUND_ID>  (64) 
CMNPD656

>  <MOLECULAR_FORMULA>  (64) 
C8H12Cl2O

>  <MOLECULAR_WEIGHT>  (64) 
195.08900000000003

>  <MOLECULAR_MASS>  (64) 
194.026520364

>  <ALOGP>  (64) 
3.0226000000000015

>  <ROTATABLE_BONDS>  (64) 
3

>  <HBA>  (64) 
1

>  <HBD>  (64) 
1

>  <POLAR_SURFACE_AREA>  (64) 
20.23

>  <AROMATIC_RINGS>  (64) 
0

>  <HEAVY_ATOMS>  (64) 
11

>  <QED_WEIGHTED>  (64) 
0.7332308000660168

>  <BLOOD_BRAIN_BARRIER_PENETRATION>  (64) 
0.226

>  <BLOOD_BRAIN_BARRIER_PENETRATION_LEVEL>  (64) 
1

>  <HUMAN_INTESTINAL_ABSORPTION_LEVEL>  (64) 
0

>  <AQUEOUS_SOLUBILITY>  (64) 
-2.038

>  <AQUEOUS_SOLUBILITY_LEVEL>  (64) 
3

>  <CYP2D6_BINDING_MODEL>  (64) 
false

>  <HEPATOTOXICITY_MODEL>  (64) 
true

>  <PLASMA_PROTEIN_BINDING_MODEL>  (64) 
false

>  <SMILES>  (64) 
C(C\C=C(\C)/Cl)(O)\C(\C)=C\Cl

>  <STANDARD_INCHI>  (64) 
InChI=1S/C8H12Cl2O/c1-6(5-9)8(11)4-3-7(2)10/h3,5,8,11H,4H2,1-2H3/b6-5+,7-3-

>  <STANDARD_INCHI_KEY>  (64) 
AAGSVSIRUBZUSD-UDQYSLBASA-N

$$$$

     RDKit          2D

 18 17  0  0  0  0  0  0  0  0999 V2000
    8.5768    5.4127    0.0000 C   0  0  0  0  0  0  0  0  0  0  0  0
    9.2921    5.0000    0.0000 C   0  0  0  0  0  0  0  0  0  0  0  0
   10.0075    5.4127    0.0000 C   0  0  0  0  0  0  0  0  0  0  0  0
    7.8614    5.0000    0.0000 C   0  0  0  0  0  0  0  0  0  0  0  0
    8.5768    6.2381    0.0000 C   0  0  0  0  0  0  0  0  0  0  0  0
    7.1461    5.4127    0.0000 C   0  0  0  0  0  0  0  0  0  0  0  0
    6.4307    5.0000    0.0000 C   0  0  0  0  0  0  0  0  0  0  0  0
    5.7154    5.4127    0.0000 C   0  0  0  0  0  0  0  0  0  0  0  0
    5.0000    5.0000    0.0000 C   0  0  0  0  0  0  0  0  0  0  0  0
    5.0000    5.8254    0.0000 O   0  0  0  0  0  0  0  0  0  0  0  0
    5.7154    6.2381    0.0000 C   0  0  0  0  0  0  0  0  0  0  0  0
   10.7228    5.0000    0.0000 C   0  0  0  0  0  0  0  0  0  0  0  0
   11.4382    5.4127    0.0000 C   0  0  0  0  0  0  0  0  0  0  0  0
   12.1536    5.0000    0.0000 C   0  0  0  0  0  0  0  0  0  0  0  0
   11.4382    6.2381    0.0000 C   0  0  0  0  0  0  0  0  0  0  0  0
   12.1536    6.6233    0.0000 O   0  0  0  0  0  0  0  0  0  0  0  0
   12.8689    5.4127    0.0000 C   0  0  0  0  0  0  0  0  0  0  0  0
   13.5843    5.0000    0.0000 O   0  0  0  0  0  0  0  0  0  0  0  0
 15 16  2  0
 13 15  1  0
 17 18  2  0
 14 17  1  0
  1  2  1  0
  1  4  2  0
  1  5  1  0
  2  3  2  0
  3 12  1  0
  4  6  1  0
  6  7  2  0
  7  8  1  0
  8  9  1  0
  8 10  1  0
  8 11  1  0
 12 13  2  0
 13 14  1  0
M  END
>  <COMPOUND_ID>  (65) 
CMNPD348

>  <MOLECULAR_FORMULA>  (65) 
C15H20O3

>  <MOLECULAR_WEIGHT>  (65) 
248.32199999999997

>  <MOLECULAR_MASS>  (65) 
248.1412445

>  <ALOGP>  (65) 
2.5303000000000004

>  <ROTATABLE_BONDS>  (65) 
7

>  <HBA>  (65) 
3

>  <HBD>  (65) 
1

>  <POLAR_SURFACE_AREA>  (65) 
54.37

>  <AROMATIC_RINGS>  (65) 
0

>  <HEAVY_ATOMS>  (65) 
18

>  <QED_WEIGHTED>  (65) 
0.42770955606256417

>  <BLOOD_BRAIN_BARRIER_PENETRATION>  (65) 
-0.442

>  <BLOOD_BRAIN_BARRIER_PENETRATION_LEVEL>  (65) 
2

>  <HUMAN_INTESTINAL_ABSORPTION_LEVEL>  (65) 
0

>  <AQUEOUS_SOLUBILITY>  (65) 
-1.729

>  <AQUEOUS_SOLUBILITY_LEVEL>  (65) 
4

>  <CYP2D6_BINDING_MODEL>  (65) 
false

>  <HEPATOTOXICITY_MODEL>  (65) 
false

>  <PLASMA_PROTEIN_BINDING_MODEL>  (65) 
true

>  <SMILES>  (65) 
C(/C)(=C/C=C/C(C)(O)C)\C=C\C=C(\CC=O)/C=O

>  <STANDARD_INCHI>  (65) 
InChI=1S/C15H20O3/c1-13(7-5-10-15(2,3)18)6-4-8-14(12-17)9-11-16/h4-8,10-12,18H,9H2,1-3H3/b6-4+,10-5+,13-7+,14-8-

>  <STANDARD_INCHI_KEY>  (65) 
GPAHXNBSOVOABW-HTMFJWCOSA-N

$$$$

     RDKit          2D

 20 23  0  0  1  0  0  0  0  0999 V2000
    8.2542    5.4688    0.0000 C   0  0  0  0  0  0  0  0  0  0  0  0
    8.2542    6.9580    0.0000 C   0  0  0  0  0  0  0  0  0  0  0  0
    8.5852    5.7170    0.0000 C   0  0  0  0  0  0  0  0  0  0  0  0
    8.9988    5.0000    0.0000 C   0  0  0  0  0  0  0  0  0  0  0  0
    8.5852    6.4892    0.0000 C   0  0  0  0  0  0  0  0  0  0  0  0
    8.9437    7.1511    0.0000 C   0  0  0  0  0  0  0  0  0  0  0  0
    7.5096    7.1511    0.0000 C   0  0  0  0  0  0  0  0  0  0  0  0
    7.1235    6.4892    0.0000 C   0  0  0  0  0  0  0  0  0  0  0  0
    7.8405    6.7098    0.0000 O   0  0  0  0  0  0  0  0  0  0  0  0
    7.0959    5.7170    0.0000 O   0  0  0  0  0  0  0  0  0  0  0  0
    6.3789    6.7098    0.0000 C   0  0  0  0  0  0  0  0  0  0  0  0
    5.6619    6.5168    0.0000 C   0  0  0  0  0  0  0  0  0  0  0  0
    5.0000    6.8477    0.0000 Br  0  0  0  0  0  0  0  0  0  0  0  0
    6.0480    7.1511    0.0000 C   0  0  0  0  0  0  0  0  0  0  0  0
    6.0480    7.8681    0.0000 C   0  0  0  0  0  0  0  0  0  0  0  0
    6.7650    6.9580    0.0000 O   0  0  0  0  0  0  0  0  0  0  0  0
    7.5096    7.8681    0.0000 C   0  0  0  0  0  0  0  0  0  0  0  0
    9.3022    5.5516    0.0000 C   0  0  0  0  0  0  0  0  0  0  0  0
    5.3034    7.1511    0.0000 C   0  0  0  0  0  0  0  0  0  0  0  0
    7.5096    5.2206    0.0000 O   0  0  0  0  0  0  0  0  0  0  0  0
  2  1  1  0
  3  4  1  0
  3 10  1  0
  3  5  1  0
  3 18  1  1
  4  1  1  0
  1 20  1  6
  5  9  1  0
  5  6  1  0
  6  2  1  0
  2  7  1  0
  7  8  1  0
  7 16  1  0
  7 17  1  1
  8  9  1  0
  8 10  1  0
  8 11  1  0
 11 12  1  0
 12 13  1  1
 12 14  1  0
 14 15  1  0
 14 16  1  0
 14 19  1  0
M  END
>  <COMPOUND_ID>  (66) 
CMNPD15853

>  <MOLECULAR_FORMULA>  (66) 
C15H23BrO4

>  <MOLECULAR_WEIGHT>  (66) 
347.2490000000001

>  <MOLECULAR_MASS>  (66) 
346.077971316

>  <ALOGP>  (66) 
2.3624000000000005

>  <ROTATABLE_BONDS>  (66) 
0

>  <HBA>  (66) 
4

>  <HBD>  (66) 
1

>  <POLAR_SURFACE_AREA>  (66) 
47.92

>  <AROMATIC_RINGS>  (66) 
0

>  <HEAVY_ATOMS>  (66) 
20

>  <QED_WEIGHTED>  (66) 
0.683767239423992

>  <BLOOD_BRAIN_BARRIER_PENETRATION>  (66) 
-0.522

>  <BLOOD_BRAIN_BARRIER_PENETRATION_LEVEL>  (66) 
3

>  <HUMAN_INTESTINAL_ABSORPTION_LEVEL>  (66) 
0

>  <AQUEOUS_SOLUBILITY>  (66) 
-3.233

>  <AQUEOUS_SOLUBILITY_LEVEL>  (66) 
3

>  <CYP2D6_BINDING_MODEL>  (66) 
false

>  <HEPATOTOXICITY_MODEL>  (66) 
true

>  <PLASMA_PROTEIN_BINDING_MODEL>  (66) 
false

>  <SMILES>  (66) 
[C@H]1(O)C[C@@]2(C)C(CC13)OC(C[C@H](C(C)(O4)C)Br)(O2)[C@@]34C

>  <STANDARD_INCHI>  (66) 
InChI=1S/C15H23BrO4/c1-12(2)10(16)7-15-14(4,19-12)8-5-11(18-15)13(3,20-15)6-9(8)17/h8-11,17H,5-7H2,1-4H3/t8?,9-,10+,11?,13-,14+,15?/m0/s1

>  <STANDARD_INCHI_KEY>  (66) 
JAWMXSKLDOVARM-WGRQVDLYSA-N

$$$$

     RDKit          2D

 18 18  0  0  1  0  0  0  0  0999 V2000
    8.4641    5.6598    0.0000 C   0  0  0  0  0  0  0  0  0  0  0  0
    8.2991    6.4571    0.0000 C   0  0  0  0  0  0  0  0  0  0  0  0
    7.7493    5.2474    0.0000 O   0  0  0  0  0  0  0  0  0  0  0  0
    7.4743    6.5671    0.0000 C   0  0  0  0  0  0  0  0  0  0  0  0
    7.1444    5.7973    0.0000 C   0  0  0  0  0  0  0  0  0  0  0  0
    6.3196    5.6323    0.0000 O   0  0  0  0  0  0  0  0  0  0  0  0
    7.0619    7.2819    0.0000 C   0  0  0  0  0  0  0  0  0  0  0  0
    6.2372    7.2819    0.0000 C   0  0  0  0  0  0  0  0  0  0  0  0
    5.8248    7.9967    0.0000 C   0  0  0  0  0  0  0  0  0  0  0  0
    5.0000    7.9967    0.0000 C   0  0  0  0  0  0  0  0  0  0  0  0
    8.8490    7.0894    0.0000 Br  0  0  0  0  0  0  0  0  0  0  0  0
    7.4743    7.9967    0.0000 O   0  0  0  0  0  0  0  0  0  0  0  0
    6.2372    8.7115    0.0000 O   0  0  0  0  0  0  0  0  0  0  0  0
    7.0619    8.7115    0.0000 C   0  0  0  0  0  0  0  0  0  0  0  0
    7.4743    9.3713    0.0000 C   0  0  0  0  0  0  0  0  0  0  0  0
    8.9589    5.0000    0.0000 C   0  0  0  0  0  0  0  0  0  0  0  0
    9.2888    5.7423    0.0000 O   0  0  0  0  0  0  0  0  0  0  0  0
    9.6187    6.5121    0.0000 C   0  0  0  0  0  0  0  0  0  0  0  0
  1 16  1  6
  1  2  1  0
  1  3  1  0
  2  4  2  0
  2 11  1  0
  3  5  1  0
  4  5  1  0
  4  7  1  0
  5  6  2  0
  7  8  1  0
  7 12  1  0
  8  9  1  0
  9 10  1  0
  1 17  1  0
 14 15  1  0
 13 14  2  0
 12 14  1  0
 17 18  1  0
M  END
>  <COMPOUND_ID>  (67) 
CMNPD5947

>  <MOLECULAR_FORMULA>  (67) 
C12H17BrO5

>  <MOLECULAR_WEIGHT>  (67) 
321.1670000000001

>  <MOLECULAR_MASS>  (67) 
320.02593574400004

>  <ALOGP>  (67) 
2.2866

>  <ROTATABLE_BONDS>  (67) 
5

>  <HBA>  (67) 
5

>  <HBD>  (67) 
0

>  <POLAR_SURFACE_AREA>  (67) 
61.83

>  <AROMATIC_RINGS>  (67) 
0

>  <HEAVY_ATOMS>  (67) 
18

>  <QED_WEIGHTED>  (67) 
0.7271742777789659

>  <BLOOD_BRAIN_BARRIER_PENETRATION>  (67) 
-0.526

>  <BLOOD_BRAIN_BARRIER_PENETRATION_LEVEL>  (67) 
3

>  <HUMAN_INTESTINAL_ABSORPTION_LEVEL>  (67) 
0

>  <AQUEOUS_SOLUBILITY>  (67) 
-2.724

>  <AQUEOUS_SOLUBILITY_LEVEL>  (67) 
3

>  <CYP2D6_BINDING_MODEL>  (67) 
false

>  <HEPATOTOXICITY_MODEL>  (67) 
false

>  <PLASMA_PROTEIN_BINDING_MODEL>  (67) 
true

>  <SMILES>  (67) 
[C@@]1(OC)(OC(=O)C(C(OC(=O)C)CCC)=C1Br)C

>  <STANDARD_INCHI>  (67) 
InChI=1S/C12H17BrO5/c1-5-6-8(17-7(2)14)9-10(13)12(3,16-4)18-11(9)15/h8H,5-6H2,1-4H3/t8?,12-/m0/s1

>  <STANDARD_INCHI_KEY>  (67) 
KZVSYNZEHWQHJE-MYIOLCAUSA-N

$$$$

     RDKit          2D

 19 20  0  0  1  0  0  0  0  0999 V2000
    5.7149    6.6499    0.0000 C   0  0  0  0  0  0  0  0  0  0  0  0
    5.7149    5.8249    0.0000 C   0  0  0  0  0  0  0  0  0  0  0  0
    6.4299    5.4125    0.0000 C   0  0  0  0  0  0  0  0  0  0  0  0
    7.1448    5.8249    0.0000 C   0  0  0  0  0  0  0  0  0  0  0  0
    7.1448    6.6499    0.0000 C   0  0  0  0  0  0  0  0  0  0  0  0
    6.4299    7.0623    0.0000 C   0  0  0  0  0  0  0  0  0  0  0  0
    7.8598    6.2374    0.0000 C   0  0  0  0  0  0  0  0  0  0  0  0
    8.5747    6.6499    0.0000 C   0  0  0  0  0  0  0  0  0  0  0  0
    8.5747    7.4748    0.0000 C   0  0  0  0  0  0  0  0  0  0  0  0
    7.8598    7.8873    0.0000 C   0  0  0  0  0  0  0  0  0  0  0  0
    7.1448    7.4748    0.0000 C   0  0  0  0  0  0  0  0  0  0  0  0
    5.0000    7.0623    0.0000 O   0  0  0  0  0  0  0  0  0  0  0  0
    6.8424    7.7498    0.0000 C   0  0  0  0  0  0  0  0  0  0  0  0
    6.0174    7.7498    0.0000 C   0  0  0  0  0  0  0  0  0  0  0  0
    9.4272    7.4748    0.0000 Cl  0  0  0  0  0  0  0  0  0  0  0  0
    9.0147    8.1623    0.0000 C   0  0  0  0  0  0  0  0  0  0  0  0
    9.3172    6.2374    0.0000 Br  0  0  0  0  0  0  0  0  0  0  0  0
    7.8598    5.4125    0.0000 C   0  0  0  0  0  0  0  0  0  0  0  0
    7.1448    5.0000    0.0000 O   0  0  0  0  0  0  0  0  0  0  0  0
  1  2  1  0
  1  6  1  0
  1 12  2  0
  2  3  2  0
  3  4  1  0
  4  5  1  0
  4 18  1  1
  4 19  1  0
  5  6  1  0
  5  7  1  1
  5 11  1  0
  6 13  1  0
  6 14  1  0
  7  8  1  0
  8  9  1  0
  8 17  1  1
  9 10  1  0
  9 15  1  0
  9 16  1  1
 10 11  1  0
M  END
>  <COMPOUND_ID>  (68) 
CMNPD29296

>  <MOLECULAR_FORMULA>  (68) 
C15H22BrClO2

>  <MOLECULAR_WEIGHT>  (68) 
349.696

>  <MOLECULAR_MASS>  (68) 
348.04916972399997

>  <ALOGP>  (68) 
3.833800000000003

>  <ROTATABLE_BONDS>  (68) 
0

>  <HBA>  (68) 
2

>  <HBD>  (68) 
1

>  <POLAR_SURFACE_AREA>  (68) 
37.3

>  <AROMATIC_RINGS>  (68) 
0

>  <HEAVY_ATOMS>  (68) 
19

>  <QED_WEIGHTED>  (68) 
0.6747892638595695

>  <BLOOD_BRAIN_BARRIER_PENETRATION>  (68) 
0.299

>  <BLOOD_BRAIN_BARRIER_PENETRATION_LEVEL>  (68) 
1

>  <HUMAN_INTESTINAL_ABSORPTION_LEVEL>  (68) 
0

>  <AQUEOUS_SOLUBILITY>  (68) 
-4.602

>  <AQUEOUS_SOLUBILITY_LEVEL>  (68) 
2

>  <CYP2D6_BINDING_MODEL>  (68) 
false

>  <HEPATOTOXICITY_MODEL>  (68) 
true

>  <PLASMA_PROTEIN_BINDING_MODEL>  (68) 
true

>  <SMILES>  (68) 
C1(=O)C(C)(C)[C@]2(CC[C@](C)(Cl)[C@@H](Br)C2)[C@@](O)(C)C=C1

>  <STANDARD_INCHI>  (68) 
InChI=1S/C15H22BrClO2/c1-12(2)11(18)5-6-14(4,19)15(12)8-7-13(3,17)10(16)9-15/h5-6,10,19H,7-9H2,1-4H3/t10-,13-,14+,15+/m0/s1

>  <STANDARD_INCHI_KEY>  (68) 
BWEBMEQXFRBPSI-BSLXNSKLSA-N

$$$$

     RDKit          2D

 23 25  0  0  1  0  0  0  0  0999 V2000
    5.0000    7.4504    0.0000 C   0  0  0  0  0  0  0  0  0  0  0  0
    5.0000    6.6520    0.0000 C   0  0  0  0  0  0  0  0  0  0  0  0
    5.7158    6.2390    0.0000 C   0  0  0  0  0  0  0  0  0  0  0  0
    6.4317    6.6520    0.0000 C   0  0  0  0  0  0  0  0  0  0  0  0
    6.4317    7.4504    0.0000 C   0  0  0  0  0  0  0  0  0  0  0  0
    5.7158    7.8634    0.0000 C   0  0  0  0  0  0  0  0  0  0  0  0
    7.1475    6.2390    0.0000 C   0  0  0  0  0  0  0  0  0  0  0  0
    7.8634    6.6520    0.0000 C   0  0  0  0  0  0  0  0  0  0  0  0
    7.8634    7.4504    0.0000 C   0  0  0  0  0  0  0  0  0  0  0  0
    7.1475    7.8634    0.0000 C   0  0  0  0  0  0  0  0  0  0  0  0
    8.5792    7.8634    0.0000 C   0  0  0  0  0  0  0  0  0  0  0  0
    8.5792    8.6894    0.0000 C   0  0  0  0  0  0  0  0  0  0  0  0
    7.8634    9.1024    0.0000 C   0  0  0  0  0  0  0  0  0  0  0  0
    7.1475    8.6894    0.0000 C   0  0  0  0  0  0  0  0  0  0  0  0
    5.7158    5.3855    0.0000 C   0  0  0  0  0  0  0  0  0  0  0  0
    6.4317    5.7984    0.0000 C   0  0  0  0  0  0  0  0  0  0  0  0
    8.9922    9.3777    0.0000 C   0  0  0  0  0  0  0  0  0  0  0  0
    9.4052    8.6894    0.0000 C   0  0  0  0  0  0  0  0  0  0  0  0
    9.8182    9.3777    0.0000 C   0  0  0  0  0  0  0  0  0  0  0  0
    7.1475    7.0374    0.0000 C   0  0  0  0  0  0  0  0  0  0  0  0
    6.4317    5.0000    0.0000 O   0  0  0  0  0  0  0  0  0  0  0  0
    9.8182    7.9735    0.0000 O   0  0  0  0  0  0  0  0  0  0  0  0
   10.6442    9.3777    0.0000 O   0  0  0  0  0  0  0  0  0  0  0  0
  1  2  1  0
  1  6  1  0
  2  3  2  0
  3  4  1  0
  3 15  1  0
  4  5  1  0
  4  7  1  0
  4 16  1  1
  5  6  1  6
  5 10  1  0
  7  8  1  0
  9  8  1  6
  9 10  1  0
  9 11  1  0
 10 14  1  0
 10 20  1  6
 11 12  1  0
 12 13  1  0
 12 17  1  1
 12 18  1  0
 13 14  1  0
 15 21  1  0
 18 19  1  0
 18 22  2  0
 19 23  1  0
M  END
>  <COMPOUND_ID>  (69) 
CMNPD29881

>  <MOLECULAR_FORMULA>  (69) 
C20H32O3

>  <MOLECULAR_WEIGHT>  (69) 
320.47299999999996

>  <MOLECULAR_MASS>  (69) 
320.23514488399996

>  <ALOGP>  (69) 
3.4893000000000027

>  <ROTATABLE_BONDS>  (69) 
3

>  <HBA>  (69) 
3

>  <HBD>  (69) 
2

>  <POLAR_SURFACE_AREA>  (69) 
57.53

>  <AROMATIC_RINGS>  (69) 
0

>  <HEAVY_ATOMS>  (69) 
23

>  <QED_WEIGHTED>  (69) 
0.7826872155774642

>  <BLOOD_BRAIN_BARRIER_PENETRATION>  (69) 
-0.104

>  <BLOOD_BRAIN_BARRIER_PENETRATION_LEVEL>  (69) 
2

>  <HUMAN_INTESTINAL_ABSORPTION_LEVEL>  (69) 
0

>  <AQUEOUS_SOLUBILITY>  (69) 
-3.795

>  <AQUEOUS_SOLUBILITY_LEVEL>  (69) 
3

>  <CYP2D6_BINDING_MODEL>  (69) 
false

>  <HEPATOTOXICITY_MODEL>  (69) 
false

>  <PLASMA_PROTEIN_BINDING_MODEL>  (69) 
true

>  <SMILES>  (69) 
C1C[C@]([H])([C@@](C)(CC[C@@](C(=O)CO)(C)C2)[C@@]2([H])CC3)[C@@]3(C)C(CO)=C1

>  <STANDARD_INCHI>  (69) 
InChI=1S/C20H32O3/c1-18(17(23)13-22)9-10-20(3)14(11-18)7-8-19(2)15(12-21)5-4-6-16(19)20/h5,14,16,21-22H,4,6-13H2,1-3H3/t14-,16-,18-,19+,20-/m0/s1

>  <STANDARD_INCHI_KEY>  (69) 
KHONFVRUJCGDDX-IHXHSXLNSA-N

$$$$

     RDKit          2D

 14 14  0  0  1  0  0  0  0  0999 V2000
    5.8265    5.9642    0.0000 C   0  0  0  0  0  0  0  0  0  0  0  0
    6.1295    6.7907    0.0000 C   0  0  0  0  0  0  0  0  0  0  0  0
    6.9836    6.7907    0.0000 C   0  0  0  0  0  0  0  0  0  0  0  0
    7.2315    5.9642    0.0000 C   0  0  0  0  0  0  0  0  0  0  0  0
    5.0000    6.1295    0.0000 C   0  0  0  0  0  0  0  0  0  0  0  0
    5.2755    5.3306    0.0000 C   0  0  0  0  0  0  0  0  0  0  0  0
    7.9754    5.5510    0.0000 C   0  0  0  0  0  0  0  0  0  0  0  0
    8.7192    5.9642    0.0000 C   0  0  0  0  0  0  0  0  0  0  0  0
    9.4906    5.5510    0.0000 C   0  0  0  0  0  0  0  0  0  0  0  0
   10.2069    5.9642    0.0000 Br  0  0  0  0  0  0  0  0  0  0  0  0
    6.5428    5.4683    0.0000 O   0  0  0  0  0  0  0  0  0  0  0  0
    5.7163    7.3417    0.0000 Br  0  0  0  0  0  0  0  0  0  0  0  0
    8.4437    5.0000    0.0000 C   0  0  0  0  0  0  0  0  0  0  0  0
    7.5070    5.0275    0.0000 O   0  0  0  0  0  0  0  0  0  0  0  0
  1  2  1  0
  1 11  1  0
  1  5  1  0
  1  6  1  0
  2  3  1  0
  4  3  1  6
  4  7  1  0
  4 11  1  0
  7  8  1  0
  8  9  2  0
  9 10  1  0
  2 12  1  6
  7 13  1  6
  7 14  1  0
M  END
>  <COMPOUND_ID>  (70) 
CMNPD8054

>  <MOLECULAR_FORMULA>  (70) 
C10H16Br2O2

>  <MOLECULAR_WEIGHT>  (70) 
328.044

>  <MOLECULAR_MASS>  (70) 
325.95170395199995

>  <ALOGP>  (70) 
2.9770000000000025

>  <ROTATABLE_BONDS>  (70) 
2

>  <HBA>  (70) 
2

>  <HBD>  (70) 
1

>  <POLAR_SURFACE_AREA>  (70) 
29.46

>  <AROMATIC_RINGS>  (70) 
0

>  <HEAVY_ATOMS>  (70) 
14

>  <QED_WEIGHTED>  (70) 
0.7900376932326492

>  <BLOOD_BRAIN_BARRIER_PENETRATION>  (70) 
-5.9e-002

>  <BLOOD_BRAIN_BARRIER_PENETRATION_LEVEL>  (70) 
2

>  <HUMAN_INTESTINAL_ABSORPTION_LEVEL>  (70) 
0

>  <AQUEOUS_SOLUBILITY>  (70) 
-2.35

>  <AQUEOUS_SOLUBILITY_LEVEL>  (70) 
3

>  <CYP2D6_BINDING_MODEL>  (70) 
false

>  <HEPATOTOXICITY_MODEL>  (70) 
true

>  <PLASMA_PROTEIN_BINDING_MODEL>  (70) 
false

>  <SMILES>  (70) 
C1(C)(C)O[C@@]([H])([C@@](O)(C)\C=C\Br)C[C@H]1Br

>  <STANDARD_INCHI>  (70) 
InChI=1S/C10H16Br2O2/c1-9(2)7(12)6-8(14-9)10(3,13)4-5-11/h4-5,7-8,13H,6H2,1-3H3/b5-4+/t7-,8-,10-/m1/s1

>  <STANDARD_INCHI_KEY>  (70) 
UIVSTSHQZIFSSM-MFNNPTTOSA-N

$$$$

     RDKit          2D

 17 18  0  0  1  0  0  0  0  0999 V2000
    5.0276    6.2410    0.0000 C   0  0  0  0  0  0  0  0  0  0  0  0
    5.7446    5.8273    0.0000 C   0  0  0  0  0  0  0  0  0  0  0  0
    5.7446    5.0000    0.0000 C   0  0  0  0  0  0  0  0  0  0  0  0
    5.0000    7.0407    0.0000 C   0  0  0  0  0  0  0  0  0  0  0  0
    5.7170    7.5095    0.0000 C   0  0  0  0  0  0  0  0  0  0  0  0
    5.7170    8.3093    0.0000 C   0  0  0  0  0  0  0  0  0  0  0  0
    6.4340    7.0959    0.0000 C   0  0  0  0  0  0  0  0  0  0  0  0
    6.5168    7.8956    0.0000 C   0  0  0  0  0  0  0  0  0  0  0  0
    7.3165    8.1162    0.0000 C   0  0  0  0  0  0  0  0  0  0  0  0
    7.7577    7.3717    0.0000 C   0  0  0  0  0  0  0  0  0  0  0  0
    7.2062    6.7650    0.0000 C   0  0  0  0  0  0  0  0  0  0  0  0
    6.4616    6.2410    0.0000 C   0  0  0  0  0  0  0  0  0  0  0  0
    6.8753    5.5515    0.0000 C   0  0  0  0  0  0  0  0  0  0  0  0
    7.2613    6.2686    0.0000 O   0  0  0  0  0  0  0  0  0  0  0  0
    8.5023    7.7302    0.0000 C   0  0  0  0  0  0  0  0  0  0  0  0
    8.6126    8.5299    0.0000 C   0  0  0  0  0  0  0  0  0  0  0  0
    9.1642    7.2062    0.0000 O   0  0  0  0  0  0  0  0  0  0  0  0
  1  2  1  0
  1  4  1  0
  2  3  1  1
  2 12  1  0
  4  5  2  0
  5  6  1  0
  5  7  1  0
  7  8  1  1
  7 12  1  0
  7 11  1  0
  8  9  1  0
  9 10  1  0
 10 11  1  0
 12 13  1  1
 12 14  1  0
 10 15  1  6
 15 16  1  0
 15 17  2  0
M  END
>  <COMPOUND_ID>  (71) 
CMNPD1902

>  <MOLECULAR_FORMULA>  (71) 
C15H24O2

>  <MOLECULAR_WEIGHT>  (71) 
236.355

>  <MOLECULAR_MASS>  (71) 
236.177630008

>  <ALOGP>  (71) 
3.099000000000002

>  <ROTATABLE_BONDS>  (71) 
1

>  <HBA>  (71) 
2

>  <HBD>  (71) 
1

>  <POLAR_SURFACE_AREA>  (71) 
37.3

>  <AROMATIC_RINGS>  (71) 
0

>  <HEAVY_ATOMS>  (71) 
17

>  <QED_WEIGHTED>  (71) 
0.7102904862406739

>  <BLOOD_BRAIN_BARRIER_PENETRATION>  (71) 
-1.e-003

>  <BLOOD_BRAIN_BARRIER_PENETRATION_LEVEL>  (71) 
2

>  <HUMAN_INTESTINAL_ABSORPTION_LEVEL>  (71) 
0

>  <AQUEOUS_SOLUBILITY>  (71) 
-3.192

>  <AQUEOUS_SOLUBILITY_LEVEL>  (71) 
3

>  <CYP2D6_BINDING_MODEL>  (71) 
false

>  <HEPATOTOXICITY_MODEL>  (71) 
false

>  <PLASMA_PROTEIN_BINDING_MODEL>  (71) 
true

>  <SMILES>  (71) 
C1C=C([C@]2(C[C@](C(=O)C)([H])CC2)[C@@](O)(C)[C@H]1C)C

>  <STANDARD_INCHI>  (71) 
InChI=1S/C15H24O2/c1-10-5-6-11(2)15(14(10,4)17)8-7-13(9-15)12(3)16/h6,10,13,17H,5,7-9H2,1-4H3/t10-,13-,14+,15-/m0/s1

>  <STANDARD_INCHI_KEY>  (71) 
YRDQPZFHCDPJPY-HPEDKQMDSA-N

$$$$

     RDKit          2D

 14 14  0  0  1  0  0  0  0  0999 V2000
    5.7419    6.8409    0.0000 C   0  0  0  0  0  0  0  0  0  0  0  0
    6.1815    7.5553    0.0000 C   0  0  0  0  0  0  0  0  0  0  0  0
    6.9783    7.3904    0.0000 C   0  0  0  0  0  0  0  0  0  0  0  0
    7.0607    6.5661    0.0000 C   0  0  0  0  0  0  0  0  0  0  0  0
    5.0000    7.1706    0.0000 C   0  0  0  0  0  0  0  0  0  0  0  0
    5.0824    6.3463    0.0000 C   0  0  0  0  0  0  0  0  0  0  0  0
    7.4728    5.8518    0.0000 C   0  0  0  0  0  0  0  0  0  0  0  0
    8.2971    5.8518    0.0000 C   0  0  0  0  0  0  0  0  0  0  0  0
    8.6818    5.1099    0.0000 C   0  0  0  0  0  0  0  0  0  0  0  0
    9.5061    5.1099    0.0000 Br  0  0  0  0  0  0  0  0  0  0  0  0
    6.3188    6.2364    0.0000 O   0  0  0  0  0  0  0  0  0  0  0  0
    5.8518    8.2696    0.0000 O   0  0  0  0  0  0  0  0  0  0  0  0
    7.4728    5.0000    0.0000 O   0  0  0  0  0  0  0  0  0  0  0  0
    6.7585    5.4121    0.0000 C   0  0  0  0  0  0  0  0  0  0  0  0
  1  2  1  0
  1 11  1  0
  1  5  1  0
  1  6  1  0
  2  3  1  0
  4  3  1  6
  4  7  1  0
  4 11  1  0
  7  8  1  0
  8  9  2  0
  9 10  1  0
  2 12  1  6
  7 13  1  0
  7 14  1  1
M  END
>  <COMPOUND_ID>  (72) 
CMNPD8057

>  <MOLECULAR_FORMULA>  (72) 
C10H17BrO3

>  <MOLECULAR_WEIGHT>  (72) 
265.147

>  <MOLECULAR_MASS>  (72) 
264.03610650400003

>  <ALOGP>  (72) 
1.5744

>  <ROTATABLE_BONDS>  (72) 
2

>  <HBA>  (72) 
3

>  <HBD>  (72) 
2

>  <POLAR_SURFACE_AREA>  (72) 
49.69

>  <AROMATIC_RINGS>  (72) 
0

>  <HEAVY_ATOMS>  (72) 
14

>  <QED_WEIGHTED>  (72) 
0.7964848550026582

>  <BLOOD_BRAIN_BARRIER_PENETRATION>  (72) 
-0.805

>  <BLOOD_BRAIN_BARRIER_PENETRATION_LEVEL>  (72) 
3

>  <HUMAN_INTESTINAL_ABSORPTION_LEVEL>  (72) 
0

>  <AQUEOUS_SOLUBILITY>  (72) 
-0.756

>  <AQUEOUS_SOLUBILITY_LEVEL>  (72) 
4

>  <CYP2D6_BINDING_MODEL>  (72) 
false

>  <HEPATOTOXICITY_MODEL>  (72) 
true

>  <PLASMA_PROTEIN_BINDING_MODEL>  (72) 
false

>  <SMILES>  (72) 
C1(C)(C)O[C@@]([H])([C@@](C)(O)\C=C\Br)C[C@H]1O

>  <STANDARD_INCHI>  (72) 
InChI=1S/C10H17BrO3/c1-9(2)7(12)6-8(14-9)10(3,13)4-5-11/h4-5,7-8,12-13H,6H2,1-3H3/b5-4+/t7-,8-,10+/m1/s1

>  <STANDARD_INCHI_KEY>  (72) 
XOGUTFBJMLTSNV-TWFYULLRSA-N

$$$$

     RDKit          2D

 17 18  0  0  0  0  0  0  0  0999 V2000
    7.8346    7.4768    0.0000 C   0  0  0  0  0  0  0  0  0  0  0  0
    7.8346    6.6512    0.0000 C   0  0  0  0  0  0  0  0  0  0  0  0
    7.1191    6.2384    0.0000 C   0  0  0  0  0  0  0  0  0  0  0  0
    7.1191    7.8897    0.0000 C   0  0  0  0  0  0  0  0  0  0  0  0
    8.2474    8.1924    0.0000 C   0  0  0  0  0  0  0  0  0  0  0  0
    8.6602    7.4768    0.0000 C   0  0  0  0  0  0  0  0  0  0  0  0
    7.1191    5.4128    0.0000 C   0  0  0  0  0  0  0  0  0  0  0  0
    6.4035    5.0000    0.0000 C   0  0  0  0  0  0  0  0  0  0  0  0
    6.4035    6.6512    0.0000 C   0  0  0  0  0  0  0  0  0  0  0  0
    5.6055    6.4035    0.0000 C   0  0  0  0  0  0  0  0  0  0  0  0
    5.3578    5.6055    0.0000 O   0  0  0  0  0  0  0  0  0  0  0  0
    5.1376    7.0640    0.0000 C   0  0  0  0  0  0  0  0  0  0  0  0
    5.6055    7.7245    0.0000 C   0  0  0  0  0  0  0  0  0  0  0  0
    5.0000    8.2749    0.0000 O   0  0  0  0  0  0  0  0  0  0  0  0
    5.7981    8.5226    0.0000 C   0  0  0  0  0  0  0  0  0  0  0  0
    6.4035    7.4768    0.0000 C   0  0  0  0  0  0  0  0  0  0  0  0
    7.8346    5.0000    0.0000 C   0  0  0  0  0  0  0  0  0  0  0  0
  1  2  1  0
  1  4  1  0
  1  5  1  0
  1  6  1  0
  2  3  2  0
  3  7  1  0
  3  9  1  0
  4 16  1  0
  7  8  1  0
  7 17  1  0
  9 10  1  0
  9 16  2  0
 10 11  2  0
 10 12  1  0
 12 13  1  0
 13 14  1  0
 13 15  1  0
 13 16  1  0
M  END
>  <COMPOUND_ID>  (73) 
CMNPD4785

>  <MOLECULAR_FORMULA>  (73) 
C15H22O2

>  <MOLECULAR_WEIGHT>  (73) 
234.33899999999994

>  <MOLECULAR_MASS>  (73) 
234.161979944

>  <ALOGP>  (73) 
3.0191000000000017

>  <ROTATABLE_BONDS>  (73) 
1

>  <HBA>  (73) 
2

>  <HBD>  (73) 
1

>  <POLAR_SURFACE_AREA>  (73) 
37.3

>  <AROMATIC_RINGS>  (73) 
0

>  <HEAVY_ATOMS>  (73) 
17

>  <QED_WEIGHTED>  (73) 
0.7569156345471962

>  <BLOOD_BRAIN_BARRIER_PENETRATION>  (73) 
6.9e-002

>  <BLOOD_BRAIN_BARRIER_PENETRATION_LEVEL>  (73) 
1

>  <HUMAN_INTESTINAL_ABSORPTION_LEVEL>  (73) 
0

>  <AQUEOUS_SOLUBILITY>  (73) 
-3.466

>  <AQUEOUS_SOLUBILITY_LEVEL>  (73) 
3

>  <CYP2D6_BINDING_MODEL>  (73) 
false

>  <HEPATOTOXICITY_MODEL>  (73) 
true

>  <PLASMA_PROTEIN_BINDING_MODEL>  (73) 
true

>  <SMILES>  (73) 
C1(C)(C)CC(C(C)(O)CC2=O)=C2C(C(C)C)=C1

>  <STANDARD_INCHI>  (73) 
InChI=1S/C15H22O2/c1-9(2)10-6-14(3,4)7-11-13(10)12(16)8-15(11,5)17/h6,9,17H,7-8H2,1-5H3

>  <STANDARD_INCHI_KEY>  (73) 
CDGJALSODSFJMM-UHFFFAOYSA-N

$$$$

     RDKit          2D

 19 20  0  0  1  0  0  0  0  0999 V2000
   10.1834    6.5716    0.0000 C   0  0  0  0  0  0  0  0  0  0  0  0
    9.4390    6.8473    0.0000 C   0  0  0  0  0  0  0  0  0  0  0  0
    8.8324    6.3510    0.0000 C   0  0  0  0  0  0  0  0  0  0  0  0
    8.0604    6.6267    0.0000 C   0  0  0  0  0  0  0  0  0  0  0  0
    6.0753    6.2959    0.0000 C   0  0  0  0  0  0  0  0  0  0  0  0
    5.4687    5.7720    0.0000 C   0  0  0  0  0  0  0  0  0  0  0  0
    5.6066    5.0000    0.0000 C   0  0  0  0  0  0  0  0  0  0  0  0
    5.7996    7.0403    0.0000 C   0  0  0  0  0  0  0  0  0  0  0  0
    6.1029    7.7572    0.0000 C   0  0  0  0  0  0  0  0  0  0  0  0
    6.7921    8.1983    0.0000 C   0  0  0  0  0  0  0  0  0  0  0  0
    7.5642    8.0329    0.0000 C   0  0  0  0  0  0  0  0  0  0  0  0
    7.1230    7.1230    0.0000 C   0  0  0  0  0  0  0  0  0  0  0  0
    7.5366    6.0201    0.0000 C   0  0  0  0  0  0  0  0  0  0  0  0
    6.7646    5.8823    0.0000 O   0  0  0  0  0  0  0  0  0  0  0  0
    6.6543    8.9703    0.0000 O   0  0  0  0  0  0  0  0  0  0  0  0
    8.0604    7.4263    0.0000 O   0  0  0  0  0  0  0  0  0  0  0  0
    5.0000    7.0403    0.0000 Br  0  0  0  0  0  0  0  0  0  0  0  0
   10.3213    5.7720    0.0000 C   0  0  0  0  0  0  0  0  0  0  0  0
   10.4316    5.0000    0.0000 C   0  0  0  0  0  0  0  0  0  0  0  0
  1  2  2  0
  2  3  1  0
  4  3  1  6
  4 13  1  0
  4 16  1  0
  5  6  1  1
  5  8  1  0
  5 14  1  0
  6  7  1  0
  8  9  1  0
  8 17  1  6
  9 10  1  0
 10 11  1  0
 10 15  1  6
 11 12  1  0
 11 16  1  6
 13 12  1  0
 13 14  1  6
  1 18  1  0
 18 19  3  0
M  END
>  <COMPOUND_ID>  (74) 
CMNPD19981

>  <MOLECULAR_FORMULA>  (74) 
C15H21BrO3

>  <MOLECULAR_WEIGHT>  (74) 
329.234

>  <MOLECULAR_MASS>  (74) 
328.06740663200003

>  <ALOGP>  (74) 
2.4153000000000002

>  <ROTATABLE_BONDS>  (74) 
3

>  <HBA>  (74) 
3

>  <HBD>  (74) 
1

>  <POLAR_SURFACE_AREA>  (74) 
38.69

>  <AROMATIC_RINGS>  (74) 
0

>  <HEAVY_ATOMS>  (74) 
19

>  <QED_WEIGHTED>  (74) 
0.6383837848932167

>  <BLOOD_BRAIN_BARRIER_PENETRATION>  (74) 
0.154

>  <BLOOD_BRAIN_BARRIER_PENETRATION_LEVEL>  (74) 
1

>  <HUMAN_INTESTINAL_ABSORPTION_LEVEL>  (74) 
0

>  <AQUEOUS_SOLUBILITY>  (74) 
-3.448

>  <AQUEOUS_SOLUBILITY_LEVEL>  (74) 
3

>  <CYP2D6_BINDING_MODEL>  (74) 
false

>  <HEPATOTOXICITY_MODEL>  (74) 
true

>  <PLASMA_PROTEIN_BINDING_MODEL>  (74) 
true

>  <SMILES>  (74) 
C(/C#C)=C/C[C@H]1O[C@H](C[C@H]1O[C@H]2CC)[C@@H](O)C[C@H]2Br

>  <STANDARD_INCHI>  (74) 
InChI=1S/C15H21BrO3/c1-3-5-6-7-13-15-9-14(19-13)11(17)8-10(16)12(4-2)18-15/h1,5-6,10-15,17H,4,7-9H2,2H3/b6-5-/t10-,11+,12+,13-,14-,15-/m1/s1

>  <STANDARD_INCHI_KEY>  (74) 
NOYIFPKKLJWDFK-WEIRLIPGSA-N

$$$$

     RDKit          2D

 17 18  0  0  1  0  0  0  0  0999 V2000
    7.2015    5.0000    0.0000 C   0  0  0  0  0  0  0  0  0  0  0  0
    8.6324    5.0000    0.0000 C   0  0  0  0  0  0  0  0  0  0  0  0
    5.0000    6.1007    0.0000 C   0  0  0  0  0  0  0  0  0  0  0  0
    8.3297    8.5774    0.0000 C   0  0  0  0  0  0  0  0  0  0  0  0
    5.9356    7.0639    0.0000 C   0  0  0  0  0  0  0  0  0  0  0  0
    6.4034    7.7243    0.0000 C   0  0  0  0  0  0  0  0  0  0  0  0
    8.6324    6.6511    0.0000 C   0  0  0  0  0  0  0  0  0  0  0  0
    8.6324    7.4766    0.0000 C   0  0  0  0  0  0  0  0  0  0  0  0
    7.9169    5.4128    0.0000 C   0  0  0  0  0  0  0  0  0  0  0  0
    5.7980    5.8531    0.0000 C   0  0  0  0  0  0  0  0  0  0  0  0
    7.9169    6.2383    0.0000 C   0  0  0  0  0  0  0  0  0  0  0  0
    6.4034    6.4034    0.0000 C   0  0  0  0  0  0  0  0  0  0  0  0
    7.2015    7.4766    0.0000 C   0  0  0  0  0  0  0  0  0  0  0  0
    7.2015    6.6511    0.0000 C   0  0  0  0  0  0  0  0  0  0  0  0
    7.9169    7.8894    0.0000 C   0  0  0  0  0  0  0  0  0  0  0  0
    5.9631    5.0275    0.0000 O   0  0  0  0  0  0  0  0  0  0  0  0
    7.5042    8.5774    0.0000 O   0  0  0  0  0  0  0  0  0  0  0  0
  6  5  1  0
  8  7  1  0
  9  1  1  0
  9  2  1  0
 10  3  1  0
 11  7  1  0
 11  9  1  1
 12  5  1  0
 12 10  1  1
 13  6  1  1
 14 11  1  6
 14 12  1  0
 14 13  1  0
 15  4  1  1
 15  8  1  0
 15 13  1  0
 16 10  2  0
 15 17  1  0
M  END
>  <COMPOUND_ID>  (75) 
CMNPD120

>  <MOLECULAR_FORMULA>  (75) 
C15H26O2

>  <MOLECULAR_WEIGHT>  (75) 
238.37100000000004

>  <MOLECULAR_MASS>  (75) 
238.193280072

>  <ALOGP>  (75) 
3.034800000000002

>  <ROTATABLE_BONDS>  (75) 
2

>  <HBA>  (75) 
2

>  <HBD>  (75) 
1

>  <POLAR_SURFACE_AREA>  (75) 
37.3

>  <AROMATIC_RINGS>  (75) 
0

>  <HEAVY_ATOMS>  (75) 
17

>  <QED_WEIGHTED>  (75) 
0.8025852891881485

>  <BLOOD_BRAIN_BARRIER_PENETRATION>  (75) 
4.8e-002

>  <BLOOD_BRAIN_BARRIER_PENETRATION_LEVEL>  (75) 
1

>  <HUMAN_INTESTINAL_ABSORPTION_LEVEL>  (75) 
0

>  <AQUEOUS_SOLUBILITY>  (75) 
-3.208

>  <AQUEOUS_SOLUBILITY_LEVEL>  (75) 
3

>  <CYP2D6_BINDING_MODEL>  (75) 
false

>  <HEPATOTOXICITY_MODEL>  (75) 
true

>  <PLASMA_PROTEIN_BINDING_MODEL>  (75) 
true

>  <SMILES>  (75) 
CC([C@@]([H])([C@@]([H])([C@]([H])([C@](O)(C1)C)C2)[C@@]([H])(C(=O)C)C2)C1)C

>  <STANDARD_INCHI>  (75) 
InChI=1S/C15H26O2/c1-9(2)11-7-8-15(4,17)13-6-5-12(10(3)16)14(11)13/h9,11-14,17H,5-8H2,1-4H3/t11-,12+,13+,14+,15+/m0/s1

>  <STANDARD_INCHI_KEY>  (75) 
WLXJHVQYKOJBBN-NJVJYBDUSA-N

$$$$

     RDKit          2D

 17 19  0  0  0  0  0  0  0  0999 V2000
    5.7994    6.3507    0.0000 C   0  0  0  0  0  0  0  0  0  0  0  0
    6.4058    5.7994    0.0000 C   0  0  0  0  0  0  0  0  0  0  0  0
    6.2404    5.0000    0.0000 C   0  0  0  0  0  0  0  0  0  0  0  0
    5.0000    6.1026    0.0000 C   0  0  0  0  0  0  0  0  0  0  0  0
    5.9924    7.1501    0.0000 C   0  0  0  0  0  0  0  0  0  0  0  0
    6.7642    7.3706    0.0000 C   0  0  0  0  0  0  0  0  0  0  0  0
    7.3706    6.8193    0.0000 C   0  0  0  0  0  0  0  0  0  0  0  0
    8.1425    7.2052    0.0000 O   0  0  0  0  0  0  0  0  0  0  0  0
    7.1777    6.0475    0.0000 C   0  0  0  0  0  0  0  0  0  0  0  0
    7.7014    5.3859    0.0000 C   0  0  0  0  0  0  0  0  0  0  0  0
    8.5559    5.3859    0.0000 C   0  0  0  0  0  0  0  0  0  0  0  0
    9.0521    6.0199    0.0000 C   0  0  0  0  0  0  0  0  0  0  0  0
    8.8867    6.8469    0.0000 C   0  0  0  0  0  0  0  0  0  0  0  0
    9.6034    7.2604    0.0000 C   0  0  0  0  0  0  0  0  0  0  0  0
   10.2374    6.7366    0.0000 O   0  0  0  0  0  0  0  0  0  0  0  0
    9.8515    5.9924    0.0000 C   0  0  0  0  0  0  0  0  0  0  0  0
   10.2650    5.2757    0.0000 O   0  0  0  0  0  0  0  0  0  0  0  0
  1  2  1  0
  1  4  1  0
  1  5  1  0
  2  3  2  0
  2  9  1  0
  5  6  1  0
  6  7  1  0
  7  8  1  0
  7  9  1  0
  8 13  1  0
  9 10  1  0
 10 11  1  0
 11 12  2  0
 12 13  1  0
 12 16  1  0
 13 14  1  0
 14 15  1  0
 15 16  1  0
 16 17  2  0
M  END
>  <COMPOUND_ID>  (76) 
CMNPD15846

>  <MOLECULAR_FORMULA>  (76) 
C14H18O3

>  <MOLECULAR_WEIGHT>  (76) 
234.29499999999996

>  <MOLECULAR_MASS>  (76) 
234.125594436

>  <ALOGP>  (76) 
2.2294

>  <ROTATABLE_BONDS>  (76) 
0

>  <HBA>  (76) 
3

>  <HBD>  (76) 
0

>  <POLAR_SURFACE_AREA>  (76) 
35.53

>  <AROMATIC_RINGS>  (76) 
0

>  <HEAVY_ATOMS>  (76) 
17

>  <QED_WEIGHTED>  (76) 
0.47604521995012145

>  <BLOOD_BRAIN_BARRIER_PENETRATION>  (76) 
2.8e-002

>  <BLOOD_BRAIN_BARRIER_PENETRATION_LEVEL>  (76) 
1

>  <HUMAN_INTESTINAL_ABSORPTION_LEVEL>  (76) 
0

>  <AQUEOUS_SOLUBILITY>  (76) 
-3.875

>  <AQUEOUS_SOLUBILITY_LEVEL>  (76) 
3

>  <CYP2D6_BINDING_MODEL>  (76) 
false

>  <HEPATOTOXICITY_MODEL>  (76) 
false

>  <PLASMA_PROTEIN_BINDING_MODEL>  (76) 
true

>  <SMILES>  (76) 
C1(CCC2C(CC=C3C(COC3=O)O2)C1=C)C

>  <STANDARD_INCHI>  (76) 
InChI=1S/C14H18O3/c1-8-3-6-12-10(9(8)2)4-5-11-13(17-12)7-16-14(11)15/h5,8,10,12-13H,2-4,6-7H2,1H3

>  <STANDARD_INCHI_KEY>  (76) 
ONMNYYBTYYSWNB-UHFFFAOYSA-N

$$$$

     RDKit          2D

 15 14  0  0  0  0  0  0  0  0999 V2000
    5.7165    6.6533    0.0000 C   0  0  0  0  0  0  0  0  0  0  0  0
    6.4329    6.2400    0.0000 C   0  0  0  0  0  0  0  0  0  0  0  0
    5.0000    6.2400    0.0000 C   0  0  0  0  0  0  0  0  0  0  0  0
    5.7165    7.4800    0.0000 C   0  0  0  0  0  0  0  0  0  0  0  0
    7.1494    6.6533    0.0000 C   0  0  0  0  0  0  0  0  0  0  0  0
    7.8658    6.2400    0.0000 C   0  0  0  0  0  0  0  0  0  0  0  0
    8.5823    6.6533    0.0000 C   0  0  0  0  0  0  0  0  0  0  0  0
    8.5823    7.4800    0.0000 C   0  0  0  0  0  0  0  0  0  0  0  0
    9.2987    6.2400    0.0000 C   0  0  0  0  0  0  0  0  0  0  0  0
   10.0152    6.6533    0.0000 C   0  0  0  0  0  0  0  0  0  0  0  0
    8.5823    5.8267    0.0000 O   0  0  0  0  0  0  0  0  0  0  0  0
    6.4329    5.4133    0.0000 O   0  0  0  0  0  0  0  0  0  0  0  0
    5.7165    5.0000    0.0000 C   0  0  0  0  0  0  0  0  0  0  0  0
    9.2987    7.8934    0.0000 O   0  0  0  0  0  0  0  0  0  0  0  0
    9.2987    8.6925    0.0000 C   0  0  0  0  0  0  0  0  0  0  0  0
  1  2  1  0
  1  3  2  0
  1  4  1  0
  2 12  1  0
  2  5  1  0
  5  6  1  0
  6  7  1  0
  7  8  1  0
  7  9  1  0
  7 11  1  0
  8 14  1  0
  9 10  2  0
 12 13  1  0
 14 15  1  0
M  END
>  <COMPOUND_ID>  (77) 
CMNPD4780

>  <MOLECULAR_FORMULA>  (77) 
C12H22O3

>  <MOLECULAR_WEIGHT>  (77) 
214.30499999999998

>  <MOLECULAR_MASS>  (77) 
214.156894564

>  <ALOGP>  (77) 
1.9212

>  <ROTATABLE_BONDS>  (77) 
8

>  <HBA>  (77) 
3

>  <HBD>  (77) 
1

>  <POLAR_SURFACE_AREA>  (77) 
38.69

>  <AROMATIC_RINGS>  (77) 
0

>  <HEAVY_ATOMS>  (77) 
15

>  <QED_WEIGHTED>  (77) 
0.6273443009934159

>  <BLOOD_BRAIN_BARRIER_PENETRATION>  (77) 
-0.267

>  <BLOOD_BRAIN_BARRIER_PENETRATION_LEVEL>  (77) 
2

>  <HUMAN_INTESTINAL_ABSORPTION_LEVEL>  (77) 
0

>  <AQUEOUS_SOLUBILITY>  (77) 
-1.278

>  <AQUEOUS_SOLUBILITY_LEVEL>  (77) 
4

>  <CYP2D6_BINDING_MODEL>  (77) 
false

>  <HEPATOTOXICITY_MODEL>  (77) 
false

>  <PLASMA_PROTEIN_BINDING_MODEL>  (77) 
false

>  <SMILES>  (77) 
C(C)(=C)C(CCC(O)(C=C)COC)OC

>  <STANDARD_INCHI>  (77) 
InChI=1S/C12H22O3/c1-6-12(13,9-14-4)8-7-11(15-5)10(2)3/h6,11,13H,1-2,7-9H2,3-5H3

>  <STANDARD_INCHI_KEY>  (77) 
YVORMDDFZMHTHT-UHFFFAOYSA-N

$$$$

     RDKit          2D

 19 20  0  0  1  0  0  0  0  0999 V2000
    6.4301    7.7778    0.0000 C   0  0  0  0  0  0  0  0  0  0  0  0
    5.7426    8.2453    0.0000 C   0  0  0  0  0  0  0  0  0  0  0  0
    5.0000    7.9153    0.0000 C   0  0  0  0  0  0  0  0  0  0  0  0
    6.4301    6.9252    0.0000 C   0  0  0  0  0  0  0  0  0  0  0  0
    7.2277    6.6777    0.0000 C   0  0  0  0  0  0  0  0  0  0  0  0
    7.6952    7.3377    0.0000 C   0  0  0  0  0  0  0  0  0  0  0  0
    8.5203    7.3377    0.0000 C   0  0  0  0  0  0  0  0  0  0  0  0
    8.9604    8.0528    0.0000 C   0  0  0  0  0  0  0  0  0  0  0  0
    9.7579    7.8603    0.0000 C   0  0  0  0  0  0  0  0  0  0  0  0
    9.8404    7.0627    0.0000 C   0  0  0  0  0  0  0  0  0  0  0  0
   10.3630    8.3553    0.0000 O   0  0  0  0  0  0  0  0  0  0  0  0
    7.2002    8.0253    0.0000 O   0  0  0  0  0  0  0  0  0  0  0  0
    9.0704    6.7052    0.0000 O   0  0  0  0  0  0  0  0  0  0  0  0
   10.5555    6.6501    0.0000 C   0  0  0  0  0  0  0  0  0  0  0  0
    5.7976    6.4026    0.0000 O   0  0  0  0  0  0  0  0  0  0  0  0
   11.9856    6.6501    0.0000 C   0  0  0  0  0  0  0  0  0  0  0  0
   11.2706    7.0627    0.0000 C   0  0  0  0  0  0  0  0  0  0  0  0
   11.9856    5.8251    0.0000 C   0  0  0  0  0  0  0  0  0  0  0  0
   11.9856    5.0000    0.0000 C   0  0  0  0  0  0  0  0  0  0  0  0
  1  2  1  6
  1  4  1  0
  1 12  1  0
  2  3  1  0
  4  5  1  0
  4 15  1  6
  6  5  1  6
  6  7  1  0
  6 12  1  0
  7  8  1  6
  7 13  1  0
  8  9  1  0
  9 10  1  0
  9 11  1  6
 10 13  1  0
 10 14  1  6
 14 17  1  0
 16 17  2  0
 16 18  1  0
 18 19  3  0
M  END
>  <COMPOUND_ID>  (78) 
CMNPD19977

>  <MOLECULAR_FORMULA>  (78) 
C15H22O4

>  <MOLECULAR_WEIGHT>  (78) 
266.337

>  <MOLECULAR_MASS>  (78) 
266.151809184

>  <ALOGP>  (78) 
1.0127

>  <ROTATABLE_BONDS>  (78) 
4

>  <HBA>  (78) 
4

>  <HBD>  (78) 
2

>  <POLAR_SURFACE_AREA>  (78) 
58.92

>  <AROMATIC_RINGS>  (78) 
0

>  <HEAVY_ATOMS>  (78) 
19

>  <QED_WEIGHTED>  (78) 
0.7457296919054376

>  <BLOOD_BRAIN_BARRIER_PENETRATION>  (78) 
-0.592

>  <BLOOD_BRAIN_BARRIER_PENETRATION_LEVEL>  (78) 
3

>  <HUMAN_INTESTINAL_ABSORPTION_LEVEL>  (78) 
0

>  <AQUEOUS_SOLUBILITY>  (78) 
-1.723

>  <AQUEOUS_SOLUBILITY_LEVEL>  (78) 
4

>  <CYP2D6_BINDING_MODEL>  (78) 
false

>  <HEPATOTOXICITY_MODEL>  (78) 
true

>  <PLASMA_PROTEIN_BINDING_MODEL>  (78) 
true

>  <SMILES>  (78) 
[C@H]1(O[C@H]([C@H]2O[C@@H](C\C=C/C#C)[C@@H](O)C2)C[C@@H]1O)CC

>  <STANDARD_INCHI>  (78) 
InChI=1S/C15H22O4/c1-3-5-6-7-13-11(17)9-15(19-13)14-8-10(16)12(4-2)18-14/h1,5-6,10-17H,4,7-9H2,2H3/b6-5-/t10-,11-,12-,13-,14-,15-/m0/s1

>  <STANDARD_INCHI_KEY>  (78) 
SQASSOPEGUZNNA-PTSLLPCZSA-N

$$$$

     RDKit          2D

 14 13  0  0  0  0  0  0  0  0999 V2000
    7.8662    5.8268    0.0000 C   0  0  0  0  0  0  0  0  0  0  0  0
    8.5828    6.2402    0.0000 C   0  0  0  0  0  0  0  0  0  0  0  0
    9.2994    5.8268    0.0000 C   0  0  0  0  0  0  0  0  0  0  0  0
    7.1497    6.2402    0.0000 C   0  0  0  0  0  0  0  0  0  0  0  0
    6.4331    5.8268    0.0000 C   0  0  0  0  0  0  0  0  0  0  0  0
    5.7166    6.2402    0.0000 C   0  0  0  0  0  0  0  0  0  0  0  0
    5.0000    5.8268    0.0000 C   0  0  0  0  0  0  0  0  0  0  0  0
    8.5828    7.0670    0.0000 O   0  0  0  0  0  0  0  0  0  0  0  0
   10.0159    6.2402    0.0000 Br  0  0  0  0  0  0  0  0  0  0  0  0
    9.2994    5.0000    0.0000 Br  0  0  0  0  0  0  0  0  0  0  0  0
    7.1497    7.0670    0.0000 O   0  0  0  0  0  0  0  0  0  0  0  0
    6.4331    8.2796    0.0000 O   0  0  0  0  0  0  0  0  0  0  0  0
    6.4331    7.4804    0.0000 C   0  0  0  0  0  0  0  0  0  0  0  0
    5.7166    7.0670    0.0000 C   0  0  0  0  0  0  0  0  0  0  0  0
  1  2  1  0
  1  4  1  0
  2  3  1  0
  2  8  1  0
  3  9  1  0
  3 10  1  0
  4  5  1  0
  4 11  1  0
  5  6  1  0
  6  7  1  0
 11 13  1  0
 12 13  2  0
 13 14  1  0
M  END
>  <COMPOUND_ID>  (79) 
CMNPD2625

>  <MOLECULAR_FORMULA>  (79) 
C9H16Br2O3

>  <MOLECULAR_WEIGHT>  (79) 
332.0320000000001

>  <MOLECULAR_MASS>  (79) 
329.9466185719999

>  <ALOGP>  (79) 
2.5851000000000006

>  <ROTATABLE_BONDS>  (79) 
6

>  <HBA>  (79) 
3

>  <HBD>  (79) 
1

>  <POLAR_SURFACE_AREA>  (79) 
46.53

>  <AROMATIC_RINGS>  (79) 
0

>  <HEAVY_ATOMS>  (79) 
14

>  <QED_WEIGHTED>  (79) 
0.6007882845365158

>  <BLOOD_BRAIN_BARRIER_PENETRATION>  (79) 
-0.138

>  <BLOOD_BRAIN_BARRIER_PENETRATION_LEVEL>  (79) 
2

>  <HUMAN_INTESTINAL_ABSORPTION_LEVEL>  (79) 
0

>  <AQUEOUS_SOLUBILITY>  (79) 
-2.2

>  <AQUEOUS_SOLUBILITY_LEVEL>  (79) 
3

>  <CYP2D6_BINDING_MODEL>  (79) 
false

>  <HEPATOTOXICITY_MODEL>  (79) 
false

>  <PLASMA_PROTEIN_BINDING_MODEL>  (79) 
true

>  <SMILES>  (79) 
C(C(OC(C)=O)CCC)C(O)C(Br)Br

>  <STANDARD_INCHI>  (79) 
InChI=1S/C9H16Br2O3/c1-3-4-7(14-6(2)12)5-8(13)9(10)11/h7-9,13H,3-5H2,1-2H3

>  <STANDARD_INCHI_KEY>  (79) 
OJACLJLXKPGSGL-UHFFFAOYSA-N

$$$$

     RDKit          2D

 20 22  0  0  1  0  0  0  0  0999 V2000
    6.6540    8.8043    0.0000 C   0  0  0  0  0  0  0  0  0  0  0  0
    6.6540    7.9773    0.0000 C   0  0  0  0  0  0  0  0  0  0  0  0
    7.3708    9.2178    0.0000 C   0  0  0  0  0  0  0  0  0  0  0  0
    8.0875    8.8043    0.0000 C   0  0  0  0  0  0  0  0  0  0  0  0
    8.5011    9.4935    0.0000 C   0  0  0  0  0  0  0  0  0  0  0  0
    8.0875    7.9773    0.0000 C   0  0  0  0  0  0  0  0  0  0  0  0
    7.3708    7.5638    0.0000 C   0  0  0  0  0  0  0  0  0  0  0  0
    7.3708   10.0173    0.0000 O   0  0  0  0  0  0  0  0  0  0  0  0
    5.9373    8.3908    0.0000 O   0  0  0  0  0  0  0  0  0  0  0  0
    5.4135    5.8270    0.0000 C   0  0  0  0  0  0  0  0  0  0  0  0
    6.2405    5.0000    0.0000 C   0  0  0  0  0  0  0  0  0  0  0  0
    5.0000    5.1103    0.0000 Br  0  0  0  0  0  0  0  0  0  0  0  0
    5.0000    6.5438    0.0000 C   0  0  0  0  0  0  0  0  0  0  0  0
    6.6540    6.5438    0.0000 C   0  0  0  0  0  0  0  0  0  0  0  0
    6.2405    7.2605    0.0000 C   0  0  0  0  0  0  0  0  0  0  0  0
    5.4135    7.2605    0.0000 C   0  0  0  0  0  0  0  0  0  0  0  0
    6.2405    5.8270    0.0000 C   0  0  0  0  0  0  0  0  0  0  0  0
    6.9573    5.4135    0.0000 C   0  0  0  0  0  0  0  0  0  0  0  0
    8.9146    8.8043    0.0000 C   0  0  0  0  0  0  0  0  0  0  0  0
    9.3281    8.0875    0.0000 O   0  0  0  0  0  0  0  0  0  0  0  0
  1  2  1  0
  1  3  1  0
  2  7  1  6
  2  9  1  0
  3  4  1  0
  3  8  1  6
  4  5  1  1
  4  6  1  0
  4 19  1  0
  6  7  1  0
  1  9  1  6
 10 17  1  0
 10 12  1  1
 10 13  1  0
 17 11  1  0
 17 14  1  0
 13 16  1  0
 15 14  1  6
 15 16  1  0
 17 18  1  0
  2 15  1  0
 19 20  1  0
M  END
>  <COMPOUND_ID>  (80) 
CMNPD7345

>  <MOLECULAR_FORMULA>  (80) 
C16H27BrO3

>  <MOLECULAR_WEIGHT>  (80) 
347.2930000000002

>  <MOLECULAR_MASS>  (80) 
346.11435682399997

>  <ALOGP>  (80) 
2.867100000000002

>  <ROTATABLE_BONDS>  (80) 
2

>  <HBA>  (80) 
3

>  <HBD>  (80) 
2

>  <POLAR_SURFACE_AREA>  (80) 
52.989999999999995

>  <AROMATIC_RINGS>  (80) 
0

>  <HEAVY_ATOMS>  (80) 
20

>  <QED_WEIGHTED>  (80) 
0.5966150691089824

>  <BLOOD_BRAIN_BARRIER_PENETRATION>  (80) 
-0.155

>  <BLOOD_BRAIN_BARRIER_PENETRATION_LEVEL>  (80) 
2

>  <HUMAN_INTESTINAL_ABSORPTION_LEVEL>  (80) 
0

>  <AQUEOUS_SOLUBILITY>  (80) 
-3.377

>  <AQUEOUS_SOLUBILITY_LEVEL>  (80) 
3

>  <CYP2D6_BINDING_MODEL>  (80) 
false

>  <HEPATOTOXICITY_MODEL>  (80) 
true

>  <PLASMA_PROTEIN_BINDING_MODEL>  (80) 
false

>  <SMILES>  (80) 
[C@H]1(O2)[C@]2([C@@H](CC[C@@H]3Br)CC3(C)C)CC[C@](CO)(C)[C@H]1O

>  <STANDARD_INCHI>  (80) 
InChI=1S/C16H27BrO3/c1-14(2)8-10(4-5-11(14)17)16-7-6-15(3,9-18)12(19)13(16)20-16/h10-13,18-19H,4-9H2,1-3H3/t10-,11-,12-,13+,15-,16+/m0/s1

>  <STANDARD_INCHI_KEY>  (80) 
IYPOREKUKVJZKD-XMDOAZLISA-N

$$$$

     RDKit          2D

 19 21  0  0  1  0  0  0  0  0999 V2000
    5.7165    5.4134    0.0000 C   0  0  0  0  0  0  0  0  0  0  0  0
    6.4330    5.0000    0.0000 C   0  0  0  0  0  0  0  0  0  0  0  0
    7.1496    5.4134    0.0000 C   0  0  0  0  0  0  0  0  0  0  0  0
    5.7165    6.2401    0.0000 C   0  0  0  0  0  0  0  0  0  0  0  0
    6.4330    6.6535    0.0000 C   0  0  0  0  0  0  0  0  0  0  0  0
    6.0197    7.3425    0.0000 C   0  0  0  0  0  0  0  0  0  0  0  0
    6.8464    7.3425    0.0000 C   0  0  0  0  0  0  0  0  0  0  0  0
    7.1496    6.2401    0.0000 C   0  0  0  0  0  0  0  0  0  0  0  0
    7.1496    7.0669    0.0000 C   0  0  0  0  0  0  0  0  0  0  0  0
    7.8661    7.4803    0.0000 C   0  0  0  0  0  0  0  0  0  0  0  0
    8.5826    7.0669    0.0000 C   0  0  0  0  0  0  0  0  0  0  0  0
    8.5826    7.8936    0.0000 O   0  0  0  0  0  0  0  0  0  0  0  0
    9.4369    7.0669    0.0000 C   0  0  0  0  0  0  0  0  0  0  0  0
    8.5826    6.2401    0.0000 C   0  0  0  0  0  0  0  0  0  0  0  0
    7.8661    5.8268    0.0000 C   0  0  0  0  0  0  0  0  0  0  0  0
    7.8661    5.0000    0.0000 C   0  0  0  0  0  0  0  0  0  0  0  0
    7.4527    8.1692    0.0000 Cl  0  0  0  0  0  0  0  0  0  0  0  0
    5.0000    5.0000    0.0000 O   0  0  0  0  0  0  0  0  0  0  0  0
    5.0000    6.6535    0.0000 Br  0  0  0  0  0  0  0  0  0  0  0  0
  1  2  1  0
  1  4  1  0
  1 18  1  6
  2  3  1  0
  8  3  1  0
  3 16  2  0
  4  5  1  0
  4 19  1  6
  5  6  1  0
  5  7  1  0
  8  5  1  0
  8  9  1  6
  8 15  1  0
  9 10  1  0
 10 12  1  0
 10 11  1  0
 10 17  1  6
 11 12  1  0
 11 13  1  6
 11 14  1  0
 14 15  1  0
M  END
>  <COMPOUND_ID>  (81) 
CMNPD16757

>  <MOLECULAR_FORMULA>  (81) 
C15H22BrClO2

>  <MOLECULAR_WEIGHT>  (81) 
349.6959999999999

>  <MOLECULAR_MASS>  (81) 
348.049169724

>  <ALOGP>  (81) 
3.991200000000004

>  <ROTATABLE_BONDS>  (81) 
0

>  <HBA>  (81) 
2

>  <HBD>  (81) 
1

>  <POLAR_SURFACE_AREA>  (81) 
32.76

>  <AROMATIC_RINGS>  (81) 
0

>  <HEAVY_ATOMS>  (81) 
19

>  <QED_WEIGHTED>  (81) 
0.4073089815971632

>  <BLOOD_BRAIN_BARRIER_PENETRATION>  (81) 
0.333

>  <BLOOD_BRAIN_BARRIER_PENETRATION_LEVEL>  (81) 
1

>  <HUMAN_INTESTINAL_ABSORPTION_LEVEL>  (81) 
0

>  <AQUEOUS_SOLUBILITY>  (81) 
-4.533

>  <AQUEOUS_SOLUBILITY_LEVEL>  (81) 
2

>  <CYP2D6_BINDING_MODEL>  (81) 
false

>  <HEPATOTOXICITY_MODEL>  (81) 
true

>  <PLASMA_PROTEIN_BINDING_MODEL>  (81) 
true

>  <SMILES>  (81) 
[C@@H]1(O)[C@H](Br)C([C@@]2(CC[C@](C)(O3)[C@@]3(Cl)C2)C(=C)C1)(C)C

>  <STANDARD_INCHI>  (81) 
InChI=1S/C15H22BrClO2/c1-9-7-10(18)11(16)12(2,3)14(9)6-5-13(4)15(17,8-14)19-13/h10-11,18H,1,5-8H2,2-4H3/t10-,11-,13-,14+,15+/m0/s1

>  <STANDARD_INCHI_KEY>  (81) 
QHRFNRBIVPGTIX-XSXPHNMFSA-N

$$$$

     RDKit          2D

 15 15  0  0  1  0  0  0  0  0999 V2000
    6.4314    5.8258    0.0000 C   0  0  0  0  0  0  0  0  0  0  0  0
    5.7157    6.2387    0.0000 C   0  0  0  0  0  0  0  0  0  0  0  0
    5.0000    5.8258    0.0000 C   0  0  0  0  0  0  0  0  0  0  0  0
    7.1472    6.2387    0.0000 C   0  0  0  0  0  0  0  0  0  0  0  0
    7.8629    5.8258    0.0000 O   0  0  0  0  0  0  0  0  0  0  0  0
    8.5786    6.2387    0.0000 C   0  0  0  0  0  0  0  0  0  0  0  0
    8.5786    5.4129    0.0000 O   0  0  0  0  0  0  0  0  0  0  0  0
    8.5786    7.0646    0.0000 C   0  0  0  0  0  0  0  0  0  0  0  0
    7.8629    7.4775    0.0000 C   0  0  0  0  0  0  0  0  0  0  0  0
    7.1472    7.0370    0.0000 C   0  0  0  0  0  0  0  0  0  0  0  0
    7.8629    8.2758    0.0000 O   0  0  0  0  0  0  0  0  0  0  0  0
    9.2943    7.4775    0.0000 Cl  0  0  0  0  0  0  0  0  0  0  0  0
    9.2943    5.8258    0.0000 C   0  0  0  0  0  0  0  0  0  0  0  0
    9.2943    5.0000    0.0000 Br  0  0  0  0  0  0  0  0  0  0  0  0
   10.0376    6.2387    0.0000 Br  0  0  0  0  0  0  0  0  0  0  0  0
  1  2  1  0
  4  1  1  6
  2  3  1  0
  4 10  1  0
  4  5  1  0
  5  6  1  0
  6  7  1  1
  6  8  1  0
  6 13  1  0
  8  9  1  0
  9 10  1  0
  9 11  1  1
  8 12  1  6
 13 14  1  0
 13 15  1  0
M  END
>  <COMPOUND_ID>  (82) 
CMNPD14947

>  <MOLECULAR_FORMULA>  (82) 
C9H15Br2ClO3

>  <MOLECULAR_WEIGHT>  (82) 
366.477

>  <MOLECULAR_MASS>  (82) 
363.90764622

>  <ALOGP>  (82) 
2.3482000000000003

>  <ROTATABLE_BONDS>  (82) 
3

>  <HBA>  (82) 
3

>  <HBD>  (82) 
2

>  <POLAR_SURFACE_AREA>  (82) 
49.69

>  <AROMATIC_RINGS>  (82) 
0

>  <HEAVY_ATOMS>  (82) 
15

>  <QED_WEIGHTED>  (82) 
0.7541372679867839

>  <BLOOD_BRAIN_BARRIER_PENETRATION>  (82) 
-0.137

>  <BLOOD_BRAIN_BARRIER_PENETRATION_LEVEL>  (82) 
2

>  <HUMAN_INTESTINAL_ABSORPTION_LEVEL>  (82) 
0

>  <AQUEOUS_SOLUBILITY>  (82) 
-2.894

>  <AQUEOUS_SOLUBILITY_LEVEL>  (82) 
3

>  <CYP2D6_BINDING_MODEL>  (82) 
false

>  <HEPATOTOXICITY_MODEL>  (82) 
true

>  <PLASMA_PROTEIN_BINDING_MODEL>  (82) 
true

>  <SMILES>  (82) 
C([C@H]1O[C@@](C(Br)Br)([C@@H](Cl)[C@H](O)C1)O)CC

>  <STANDARD_INCHI>  (82) 
InChI=1S/C9H15Br2ClO3/c1-2-3-5-4-6(13)7(12)9(14,15-5)8(10)11/h5-8,13-14H,2-4H2,1H3/t5-,6-,7+,9-/m1/s1

>  <STANDARD_INCHI_KEY>  (82) 
JCVGRYMPLWSKGQ-JAGXHNFQSA-N

$$$$

     RDKit          2D

 19 20  0  0  1  0  0  0  0  0999 V2000
    5.7159    6.2390    0.0000 C   0  0  0  0  0  0  0  0  0  0  0  0
    5.7159    5.4130    0.0000 C   0  0  0  0  0  0  0  0  0  0  0  0
    6.4317    5.0000    0.0000 C   0  0  0  0  0  0  0  0  0  0  0  0
    7.1476    5.4130    0.0000 C   0  0  0  0  0  0  0  0  0  0  0  0
    7.1476    6.2390    0.0000 C   0  0  0  0  0  0  0  0  0  0  0  0
    6.4317    6.6520    0.0000 C   0  0  0  0  0  0  0  0  0  0  0  0
    7.8634    5.8260    0.0000 C   0  0  0  0  0  0  0  0  0  0  0  0
    8.5793    6.2390    0.0000 C   0  0  0  0  0  0  0  0  0  0  0  0
    8.5793    7.0650    0.0000 C   0  0  0  0  0  0  0  0  0  0  0  0
    7.8634    7.4779    0.0000 C   0  0  0  0  0  0  0  0  0  0  0  0
    7.1476    7.0650    0.0000 C   0  0  0  0  0  0  0  0  0  0  0  0
    8.9922    7.7533    0.0000 O   0  0  0  0  0  0  0  0  0  0  0  0
    6.0187    7.3678    0.0000 C   0  0  0  0  0  0  0  0  0  0  0  0
    6.8447    7.3678    0.0000 C   0  0  0  0  0  0  0  0  0  0  0  0
    5.0000    6.6520    0.0000 Br  0  0  0  0  0  0  0  0  0  0  0  0
    5.0000    5.0000    0.0000 O   0  0  0  0  0  0  0  0  0  0  0  0
    7.8634    5.0000    0.0000 C   0  0  0  0  0  0  0  0  0  0  0  0
    9.3777    6.8722    0.0000 C   0  0  0  0  0  0  0  0  0  0  0  0
    9.5980    6.0738    0.0000 O   0  0  0  0  0  0  0  0  0  0  0  0
  1  2  1  0
  1  6  1  0
  1 15  1  1
  2  3  1  0
  2 16  1  1
  3  4  1  0
  4  5  1  0
  4 17  2  0
  5  6  1  0
  5  7  1  6
  5 11  1  0
  6 13  1  0
  6 14  1  0
  7  8  1  0
  8  9  1  0
  9 10  1  0
  9 12  1  1
  9 18  1  0
 10 11  2  0
 18 19  1  0
M  END
>  <COMPOUND_ID>  (83) 
CMNPD27849

>  <MOLECULAR_FORMULA>  (83) 
C15H23BrO3

>  <MOLECULAR_WEIGHT>  (83) 
331.2500000000001

>  <MOLECULAR_MASS>  (83) 
330.08305669599997

>  <ALOGP>  (83) 
2.1567000000000003

>  <ROTATABLE_BONDS>  (83) 
1

>  <HBA>  (83) 
3

>  <HBD>  (83) 
3

>  <POLAR_SURFACE_AREA>  (83) 
60.69

>  <AROMATIC_RINGS>  (83) 
0

>  <HEAVY_ATOMS>  (83) 
19

>  <QED_WEIGHTED>  (83) 
0.5097022777988247

>  <BLOOD_BRAIN_BARRIER_PENETRATION>  (83) 
-0.599

>  <BLOOD_BRAIN_BARRIER_PENETRATION_LEVEL>  (83) 
3

>  <HUMAN_INTESTINAL_ABSORPTION_LEVEL>  (83) 
0

>  <AQUEOUS_SOLUBILITY>  (83) 
-2.139

>  <AQUEOUS_SOLUBILITY_LEVEL>  (83) 
3

>  <CYP2D6_BINDING_MODEL>  (83) 
false

>  <HEPATOTOXICITY_MODEL>  (83) 
false

>  <PLASMA_PROTEIN_BINDING_MODEL>  (83) 
false

>  <SMILES>  (83) 
[C@H]1(Br)C(C)(C)[C@@]2(C=C[C@@](CO)(O)CC2)C(=C)C[C@H]1O

>  <STANDARD_INCHI>  (83) 
InChI=1S/C15H23BrO3/c1-10-8-11(18)12(16)13(2,3)15(10)6-4-14(19,9-17)5-7-15/h4,6,11-12,17-19H,1,5,7-9H2,2-3H3/t11-,12-,14-,15-/m1/s1

>  <STANDARD_INCHI_KEY>  (83) 
GWKDEWRFZLOGGJ-QHSBEEBCSA-N

$$$$

     RDKit          2D

 21 23  0  0  1  0  0  0  0  0999 V2000
    8.3143    7.0543    0.0000 C   0  0  0  0  0  0  0  0  0  0  0  0
    7.7117    6.4791    0.0000 C   0  0  0  0  0  0  0  0  0  0  0  0
    7.0543    6.8900    0.0000 O   0  0  0  0  0  0  0  0  0  0  0  0
    8.3143    7.9035    0.0000 C   0  0  0  0  0  0  0  0  0  0  0  0
    8.3143    8.7526    0.0000 C   0  0  0  0  0  0  0  0  0  0  0  0
    7.4926    8.9991    0.0000 C   0  0  0  0  0  0  0  0  0  0  0  0
    7.0270    8.3143    0.0000 C   0  0  0  0  0  0  0  0  0  0  0  0
    7.5200    7.6569    0.0000 O   0  0  0  0  0  0  0  0  0  0  0  0
    6.5613    8.9991    0.0000 C   0  0  0  0  0  0  0  0  0  0  0  0
    5.7670    8.7526    0.0000 C   0  0  0  0  0  0  0  0  0  0  0  0
    5.7670    7.9035    0.0000 C   0  0  0  0  0  0  0  0  0  0  0  0
    5.7396    7.0817    0.0000 C   0  0  0  0  0  0  0  0  0  0  0  0
    6.3422    6.5065    0.0000 C   0  0  0  0  0  0  0  0  0  0  0  0
    6.2326    5.6848    0.0000 C   0  0  0  0  0  0  0  0  0  0  0  0
    8.9991    9.2182    0.0000 Br  0  0  0  0  0  0  0  0  0  0  0  0
    7.9309    5.7396    0.0000 C   0  0  0  0  0  0  0  0  0  0  0  0
    8.7526    5.7122    0.0000 C   0  0  0  0  0  0  0  0  0  0  0  0
    6.5887    7.6569    0.0000 O   0  0  0  0  0  0  0  0  0  0  0  0
    5.0000    6.7530    0.0000 Cl  0  0  0  0  0  0  0  0  0  0  0  0
    9.6017    5.7396    0.0000 C   0  0  0  0  0  0  0  0  0  0  0  0
   10.0400    5.0000    0.0000 Br  0  0  0  0  0  0  0  0  0  0  0  0
  1  2  1  0
  4  1  1  6
  2  3  1  0
  2 16  1  1
  3 13  1  0
  4  8  1  0
  4  5  1  0
  5  6  1  0
  5 15  1  1
  7  6  1  6
  7  8  1  0
  7  9  1  0
  7 18  1  0
  9 10  1  0
 11 10  1  1
 11 18  1  0
 11 12  1  0
 12 13  1  0
 12 19  1  6
 13 14  1  1
 16 17  2  0
 17 20  2  0
 20 21  1  0
M  END
>  <COMPOUND_ID>  (84) 
CMNPD11024

>  <MOLECULAR_FORMULA>  (84) 
C15H19Br2ClO3

>  <MOLECULAR_WEIGHT>  (84) 
442.57500000000005

>  <MOLECULAR_MASS>  (84) 
439.938946348

>  <ALOGP>  (84) 
4.2626000000000035

>  <ROTATABLE_BONDS>  (84) 
1

>  <HBA>  (84) 
3

>  <HBD>  (84) 
0

>  <POLAR_SURFACE_AREA>  (84) 
27.69

>  <AROMATIC_RINGS>  (84) 
0

>  <HEAVY_ATOMS>  (84) 
21

>  <QED_WEIGHTED>  (84) 
0.44862245808485945

>  <BLOOD_BRAIN_BARRIER_PENETRATION>  (84) 
0.402

>  <BLOOD_BRAIN_BARRIER_PENETRATION_LEVEL>  (84) 
1

>  <HUMAN_INTESTINAL_ABSORPTION_LEVEL>  (84) 
0

>  <AQUEOUS_SOLUBILITY>  (84) 
-4.731

>  <AQUEOUS_SOLUBILITY_LEVEL>  (84) 
2

>  <CYP2D6_BINDING_MODEL>  (84) 
false

>  <HEPATOTOXICITY_MODEL>  (84) 
false

>  <PLASMA_PROTEIN_BINDING_MODEL>  (84) 
true

>  <SMILES>  (84) 
C1[C@]2([H])O[C@]3(O[C@@]([H])([C@@H](Cl)[C@H](C)O[C@@H]1C=C=CBr)CC3)C[C@H]2Br

>  <STANDARD_INCHI>  (84) 
InChI=1S/C15H19Br2ClO3/c1-9-14(18)12-4-5-15(20-12)8-11(17)13(21-15)7-10(19-9)3-2-6-16/h3,6,9-14H,4-5,7-8H2,1H3/t2?,9-,10+,11+,12+,13-,14-,15-/m0/s1

>  <STANDARD_INCHI_KEY>  (84) 
NDEGXLOZTNFBJT-XTGOFRAJSA-N

$$$$

     RDKit          2D

 14 14  0  0  0  0  0  0  0  0999 V2000
    5.7164    6.2674    0.0000 C   0  0  0  0  0  0  0  0  0  0  0  0
    6.4327    5.8541    0.0000 C   0  0  0  0  0  0  0  0  0  0  0  0
    6.4327    5.0000    0.0000 O   0  0  0  0  0  0  0  0  0  0  0  0
    5.0000    5.8541    0.0000 O   0  0  0  0  0  0  0  0  0  0  0  0
    5.7439    7.0940    0.0000 C   0  0  0  0  0  0  0  0  0  0  0  0
    6.4327    7.5073    0.0000 C   0  0  0  0  0  0  0  0  0  0  0  0
    6.4327    8.3063    0.0000 Br  0  0  0  0  0  0  0  0  0  0  0  0
    7.1491    7.0940    0.0000 C   0  0  0  0  0  0  0  0  0  0  0  0
    7.8654    7.5073    0.0000 C   0  0  0  0  0  0  0  0  0  0  0  0
    8.6369    7.0940    0.0000 C   0  0  0  0  0  0  0  0  0  0  0  0
    9.3257    7.4797    0.0000 C   0  0  0  0  0  0  0  0  0  0  0  0
    9.3257    8.3063    0.0000 O   0  0  0  0  0  0  0  0  0  0  0  0
   10.0421    7.0940    0.0000 C   0  0  0  0  0  0  0  0  0  0  0  0
    7.1491    6.2674    0.0000 C   0  0  0  0  0  0  0  0  0  0  0  0
  1  2  2  0
  1  4  1  0
  1  5  1  0
  2  3  1  0
  2 14  1  0
  5  6  2  0
  6  7  1  0
  6  8  1  0
  8  9  1  0
  8 14  2  0
  9 10  2  0
 10 11  1  0
 11 12  2  0
 11 13  1  0
M  END
>  <COMPOUND_ID>  (85) 
CMNPD21146

>  <MOLECULAR_FORMULA>  (85) 
C10H9BrO3

>  <MOLECULAR_WEIGHT>  (85) 
257.08299999999997

>  <MOLECULAR_MASS>  (85) 
255.973506248

>  <ALOGP>  (85) 
2.4625000000000004

>  <ROTATABLE_BONDS>  (85) 
2

>  <HBA>  (85) 
3

>  <HBD>  (85) 
2

>  <POLAR_SURFACE_AREA>  (85) 
57.53

>  <AROMATIC_RINGS>  (85) 
1

>  <HEAVY_ATOMS>  (85) 
14

>  <QED_WEIGHTED>  (85) 
0.6316059844661559

>  <BLOOD_BRAIN_BARRIER_PENETRATION>  (85) 
-0.378

>  <BLOOD_BRAIN_BARRIER_PENETRATION_LEVEL>  (85) 
2

>  <HUMAN_INTESTINAL_ABSORPTION_LEVEL>  (85) 
0

>  <AQUEOUS_SOLUBILITY>  (85) 
-2.25

>  <AQUEOUS_SOLUBILITY_LEVEL>  (85) 
3

>  <CYP2D6_BINDING_MODEL>  (85) 
false

>  <HEPATOTOXICITY_MODEL>  (85) 
true

>  <PLASMA_PROTEIN_BINDING_MODEL>  (85) 
true

>  <SMILES>  (85) 
c1(cc(c(cc1O)\C=C\C(C)=O)Br)O

>  <STANDARD_INCHI>  (85) 
InChI=1S/C10H9BrO3/c1-6(12)2-3-7-4-9(13)10(14)5-8(7)11/h2-5,13-14H,1H3/b3-2+

>  <STANDARD_INCHI_KEY>  (85) 
ASKPEYAHLDEMKT-NSCUHMNNSA-N

$$$$

     RDKit          2D

 16 17  0  0  1  0  0  0  0  0999 V2000
    5.0000    6.2124    0.0000 C   0  0  0  0  0  0  0  0  0  0  0  0
    5.6338    5.5511    0.0000 C   0  0  0  0  0  0  0  0  0  0  0  0
    6.4604    5.6613    0.0000 C   0  0  0  0  0  0  0  0  0  0  0  0
    6.7911    6.4053    0.0000 C   0  0  0  0  0  0  0  0  0  0  0  0
    6.1849    7.0115    0.0000 C   0  0  0  0  0  0  0  0  0  0  0  0
    6.2124    7.8382    0.0000 C   0  0  0  0  0  0  0  0  0  0  0  0
    6.7911    8.3617    0.0000 C   0  0  0  0  0  0  0  0  0  0  0  0
    7.6178    8.3617    0.0000 C   0  0  0  0  0  0  0  0  0  0  0  0
    8.1689    7.8382    0.0000 C   0  0  0  0  0  0  0  0  0  0  0  0
    8.1689    7.0115    0.0000 C   0  0  0  0  0  0  0  0  0  0  0  0
    8.9680    6.7360    0.0000 C   0  0  0  0  0  0  0  0  0  0  0  0
    9.4088    7.4249    0.0000 C   0  0  0  0  0  0  0  0  0  0  0  0
    8.9680    8.0586    0.0000 O   0  0  0  0  0  0  0  0  0  0  0  0
   10.2631    7.3973    0.0000 O   0  0  0  0  0  0  0  0  0  0  0  0
    6.9564    5.0000    0.0000 Br  0  0  0  0  0  0  0  0  0  0  0  0
    7.5902    6.4053    0.0000 O   0  0  0  0  0  0  0  0  0  0  0  0
  1  2  1  0
  2  3  1  0
  4  3  1  6
  3 15  1  0
  4  5  1  0
  4 16  1  0
  5  6  1  0
  6  7  2  0
  7  8  1  0
  9  8  1  6
  9 10  1  0
  9 13  1  0
 10 11  1  6
 10 16  1  0
 11 12  1  0
 12 13  1  0
 12 14  2  0
M  END
>  <COMPOUND_ID>  (86) 
CMNPD22364

>  <MOLECULAR_FORMULA>  (86) 
C12H17BrO3

>  <MOLECULAR_WEIGHT>  (86) 
289.169

>  <MOLECULAR_MASS>  (86) 
288.03610650400003

>  <ALOGP>  (86) 
2.579200000000001

>  <ROTATABLE_BONDS>  (86) 
2

>  <HBA>  (86) 
3

>  <HBD>  (86) 
0

>  <POLAR_SURFACE_AREA>  (86) 
35.53

>  <AROMATIC_RINGS>  (86) 
0

>  <HEAVY_ATOMS>  (86) 
16

>  <QED_WEIGHTED>  (86) 
0.4451037571192282

>  <BLOOD_BRAIN_BARRIER_PENETRATION>  (86) 
7.8e-002

>  <BLOOD_BRAIN_BARRIER_PENETRATION_LEVEL>  (86) 
1

>  <HUMAN_INTESTINAL_ABSORPTION_LEVEL>  (86) 
0

>  <AQUEOUS_SOLUBILITY>  (86) 
-3.534

>  <AQUEOUS_SOLUBILITY_LEVEL>  (86) 
3

>  <CYP2D6_BINDING_MODEL>  (86) 
false

>  <HEPATOTOXICITY_MODEL>  (86) 
false

>  <PLASMA_PROTEIN_BINDING_MODEL>  (86) 
true

>  <SMILES>  (86) 
CCC(Br)[C@H]1O[C@@H](CC(=O)O2)[C@@H]2C\C=C/C1

>  <STANDARD_INCHI>  (86) 
InChI=1S/C12H17BrO3/c1-2-8(13)9-5-3-4-6-10-11(15-9)7-12(14)16-10/h3-4,8-11H,2,5-7H2,1H3/b4-3-/t8?,9-,10-,11-/m0/s1

>  <STANDARD_INCHI_KEY>  (86) 
KGUANHHAZLJRKF-UHUVDFKCSA-N

$$$$

     RDKit          2D

 21 24  0  0  1  0  0  0  0  0999 V2000
    7.2071    5.6345    0.0000 C   0  0  0  0  0  0  0  0  0  0  0  0
    8.0623    5.3587    0.0000 C   0  0  0  0  0  0  0  0  0  0  0  0
    6.9312    6.2967    0.0000 C   0  0  0  0  0  0  0  0  0  0  0  0
    6.2415    5.9656    0.0000 C   0  0  0  0  0  0  0  0  0  0  0  0
    5.6069    5.6897    0.0000 O   0  0  0  0  0  0  0  0  0  0  0  0
    5.6345    6.3518    0.0000 C   0  0  0  0  0  0  0  0  0  0  0  0
    5.6621    7.0691    0.0000 C   0  0  0  0  0  0  0  0  0  0  0  0
    6.2415    7.4278    0.0000 C   0  0  0  0  0  0  0  0  0  0  0  0
    7.7313    6.1311    0.0000 C   0  0  0  0  0  0  0  0  0  0  0  0
    7.3450    7.0416    0.0000 O   0  0  0  0  0  0  0  0  0  0  0  0
    8.5865    6.4346    0.0000 C   0  0  0  0  0  0  0  0  0  0  0  0
    8.8900    5.7449    0.0000 C   0  0  0  0  0  0  0  0  0  0  0  0
    9.5245    6.1035    0.0000 C   0  0  0  0  0  0  0  0  0  0  0  0
    6.2415    5.2207    0.0000 C   0  0  0  0  0  0  0  0  0  0  0  0
    6.6001    8.0623    0.0000 C   0  0  0  0  0  0  0  0  0  0  0  0
    6.4346    8.7520    0.0000 C   0  0  0  0  0  0  0  0  0  0  0  0
    6.9588    8.6969    0.0000 C   0  0  0  0  0  0  0  0  0  0  0  0
    5.8828    8.0623    0.0000 Br  0  0  0  0  0  0  0  0  0  0  0  0
    7.3174    5.3587    0.0000 Br  0  0  0  0  0  0  0  0  0  0  0  0
    8.8900    5.0000    0.0000 Cl  0  0  0  0  0  0  0  0  0  0  0  0
    5.0000    7.4002    0.0000 O   0  0  0  0  0  0  0  0  0  0  0  0
  1  2  1  0
  1  3  1  0
  2 12  1  0
  3  4  1  0
  3  9  1  0
  4  5  1  0
  4  6  1  0
  6  7  1  0
  7  8  1  0
  8 10  1  0
  9 10  1  0
  9 11  1  0
 11 12  1  0
 12 13  1  0
  4 14  1  1
  8 15  1  0
  3 15  1  0
 15 16  1  0
 15 17  1  0
  8 18  1  0
  2 19  1  0
 12 20  1  0
  7 21  1  1
  6  5  1  6
M  END
>  <COMPOUND_ID>  (87) 
CMNPD96

>  <MOLECULAR_FORMULA>  (87) 
C15H21Br2ClO3

>  <MOLECULAR_WEIGHT>  (87) 
444.59099999999995

>  <MOLECULAR_MASS>  (87) 
441.954596412

>  <ALOGP>  (87) 
3.575800000000003

>  <ROTATABLE_BONDS>  (87) 
0

>  <HBA>  (87) 
3

>  <HBD>  (87) 
1

>  <POLAR_SURFACE_AREA>  (87) 
41.989999999999995

>  <AROMATIC_RINGS>  (87) 
0

>  <HEAVY_ATOMS>  (87) 
21

>  <QED_WEIGHTED>  (87) 
0.4588173931216752

>  <BLOOD_BRAIN_BARRIER_PENETRATION>  (87) 
5.8e-002

>  <BLOOD_BRAIN_BARRIER_PENETRATION_LEVEL>  (87) 
1

>  <HUMAN_INTESTINAL_ABSORPTION_LEVEL>  (87) 
0

>  <AQUEOUS_SOLUBILITY>  (87) 
-4.734

>  <AQUEOUS_SOLUBILITY_LEVEL>  (87) 
2

>  <CYP2D6_BINDING_MODEL>  (87) 
false

>  <HEPATOTOXICITY_MODEL>  (87) 
true

>  <PLASMA_PROTEIN_BINDING_MODEL>  (87) 
true

>  <SMILES>  (87) 
C1C2(C(C)(C)C3(Br)[C@H](O)[C@@H](O4)[C@]24C)C(CC(Cl)(C)C1Br)O3

>  <STANDARD_INCHI>  (87) 
InChI=1S/C15H21Br2ClO3/c1-11(2)14-5-7(16)12(3,18)6-8(14)20-15(11,17)9(19)10-13(14,4)21-10/h7-10,19H,5-6H2,1-4H3/t7?,8?,9-,10-,12?,13-,14?,15?/m1/s1

>  <STANDARD_INCHI_KEY>  (87) 
GQTRVJJQEJXMFF-GHBBJGDOSA-N

$$$$

     RDKit          2D

 21 22  0  0  1  0  0  0  0  0999 V2000
    7.8665    6.2403    0.0000 C   0  0  0  0  0  0  0  0  0  0  0  0
    8.5832    5.8269    0.0000 C   0  0  0  0  0  0  0  0  0  0  0  0
    8.5832    5.0000    0.0000 Br  0  0  0  0  0  0  0  0  0  0  0  0
    7.8665    7.0672    0.0000 C   0  0  0  0  0  0  0  0  0  0  0  0
    7.1499    7.4807    0.0000 C   0  0  0  0  0  0  0  0  0  0  0  0
    7.1499    6.6538    0.0000 C   0  0  0  0  0  0  0  0  0  0  0  0
    6.4333    7.0672    0.0000 C   0  0  0  0  0  0  0  0  0  0  0  0
    6.4333    6.2403    0.0000 O   0  0  0  0  0  0  0  0  0  0  0  0
    5.7166    7.4807    0.0000 C   0  0  0  0  0  0  0  0  0  0  0  0
    5.7166    8.3076    0.0000 C   0  0  0  0  0  0  0  0  0  0  0  0
    5.0000    8.7210    0.0000 Br  0  0  0  0  0  0  0  0  0  0  0  0
    6.4333    8.7210    0.0000 C   0  0  0  0  0  0  0  0  0  0  0  0
    6.0198    9.4101    0.0000 C   0  0  0  0  0  0  0  0  0  0  0  0
    6.8467    9.4101    0.0000 C   0  0  0  0  0  0  0  0  0  0  0  0
    7.1499    8.3076    0.0000 O   0  0  0  0  0  0  0  0  0  0  0  0
    7.8665    7.8941    0.0000 O   0  0  0  0  0  0  0  0  0  0  0  0
    8.5832    7.4807    0.0000 C   0  0  0  0  0  0  0  0  0  0  0  0
    9.2998    7.0672    0.0000 C   0  0  0  0  0  0  0  0  0  0  0  0
    9.2998    6.2403    0.0000 C   0  0  0  0  0  0  0  0  0  0  0  0
   10.1267    6.2403    0.0000 C   0  0  0  0  0  0  0  0  0  0  0  0
    9.7133    5.5237    0.0000 Cl  0  0  0  0  0  0  0  0  0  0  0  0
  1  2  1  0
  1  4  1  0
  2  3  1  1
  2 19  1  0
  4  5  1  0
  4 16  1  6
  4 17  1  0
  5  6  1  1
  5  7  1  0
  5 15  1  0
  7  8  1  6
  7  9  1  0
  9 10  1  0
 10 11  1  1
 10 12  1  0
 12 13  1  0
 12 14  1  0
 12 15  1  0
 17 18  1  0
 18 19  1  0
 19 20  1  1
 19 21  1  0
M  END
>  <COMPOUND_ID>  (88) 
CMNPD3711

>  <MOLECULAR_FORMULA>  (88) 
C15H25Br2ClO3

>  <MOLECULAR_WEIGHT>  (88) 
448.62300000000016

>  <MOLECULAR_MASS>  (88) 
445.98589653999994

>  <ALOGP>  (88) 
3.7444000000000033

>  <ROTATABLE_BONDS>  (88) 
1

>  <HBA>  (88) 
3

>  <HBD>  (88) 
2

>  <POLAR_SURFACE_AREA>  (88) 
49.69

>  <AROMATIC_RINGS>  (88) 
0

>  <HEAVY_ATOMS>  (88) 
21

>  <QED_WEIGHTED>  (88) 
0.6010523074917054

>  <BLOOD_BRAIN_BARRIER_PENETRATION>  (88) 
-0.125

>  <BLOOD_BRAIN_BARRIER_PENETRATION_LEVEL>  (88) 
2

>  <HUMAN_INTESTINAL_ABSORPTION_LEVEL>  (88) 
0

>  <AQUEOUS_SOLUBILITY>  (88) 
-3.833

>  <AQUEOUS_SOLUBILITY_LEVEL>  (88) 
3

>  <CYP2D6_BINDING_MODEL>  (88) 
false

>  <HEPATOTOXICITY_MODEL>  (88) 
true

>  <PLASMA_PROTEIN_BINDING_MODEL>  (88) 
true

>  <SMILES>  (88) 
C1[C@@](CC[C@@](Cl)(C)[C@H]1Br)(O)[C@]2(OC(C)(C)[C@H](Br)C[C@H]2O)C

>  <STANDARD_INCHI>  (88) 
InChI=1S/C15H25Br2ClO3/c1-12(2)9(16)7-11(19)14(4,21-12)15(20)6-5-13(3,18)10(17)8-15/h9-11,19-20H,5-8H2,1-4H3/t9-,10+,11-,13+,14+,15-/m1/s1

>  <STANDARD_INCHI_KEY>  (88) 
NWWILQFOMKPWRQ-COPIHEOBSA-N

$$$$

     RDKit          2D

 18 20  0  0  1  0  0  0  0  0999 V2000
    7.1462    7.7515    0.0000 C   0  0  0  0  0  0  0  0  0  0  0  0
    6.9536    6.9536    0.0000 C   0  0  0  0  0  0  0  0  0  0  0  0
    7.5864    6.4033    0.0000 C   0  0  0  0  0  0  0  0  0  0  0  0
    8.3844    6.6509    0.0000 C   0  0  0  0  0  0  0  0  0  0  0  0
    8.5495    7.4764    0.0000 C   0  0  0  0  0  0  0  0  0  0  0  0
    7.9441    8.0267    0.0000 C   0  0  0  0  0  0  0  0  0  0  0  0
    6.4033    8.1643    0.0000 C   0  0  0  0  0  0  0  0  0  0  0  0
    5.7979    7.6140    0.0000 C   0  0  0  0  0  0  0  0  0  0  0  0
    6.1281    6.8710    0.0000 C   0  0  0  0  0  0  0  0  0  0  0  0
    5.9355    8.8521    0.0000 C   0  0  0  0  0  0  0  0  0  0  0  0
    6.7610    8.9347    0.0000 O   0  0  0  0  0  0  0  0  0  0  0  0
    9.3749    7.2838    0.0000 C   0  0  0  0  0  0  0  0  0  0  0  0
    9.0998    8.0817    0.0000 C   0  0  0  0  0  0  0  0  0  0  0  0
    7.6415    7.0912    0.0000 O   0  0  0  0  0  0  0  0  0  0  0  0
    7.4213    5.6053    0.0000 C   0  0  0  0  0  0  0  0  0  0  0  0
    7.9992    5.0000    0.0000 C   0  0  0  0  0  0  0  0  0  0  0  0
    6.6234    5.3302    0.0000 C   0  0  0  0  0  0  0  0  0  0  0  0
    5.0000    7.8066    0.0000 Cl  0  0  0  0  0  0  0  0  0  0  0  0
  1  2  1  0
  2  3  1  0
  3  4  1  0
  4  5  1  0
  5  6  1  0
  1  6  1  1
  1  7  1  0
  7  8  1  0
  8  9  1  0
  2  9  1  6
  7 10  1  1
  7 11  1  0
  5 12  1  0
  5 13  1  0
  1 14  1  0
  2 14  1  0
  3 15  1  6
 15 16  1  0
 15 17  1  0
  8 18  1  1
M  END
>  <COMPOUND_ID>  (89) 
CMNPD12545

>  <MOLECULAR_FORMULA>  (89) 
C15H25ClO2

>  <MOLECULAR_WEIGHT>  (89) 
272.81600000000003

>  <MOLECULAR_MASS>  (89) 
272.15430772

>  <ALOGP>  (89) 
3.3485000000000023

>  <ROTATABLE_BONDS>  (89) 
1

>  <HBA>  (89) 
2

>  <HBD>  (89) 
1

>  <POLAR_SURFACE_AREA>  (89) 
32.76

>  <AROMATIC_RINGS>  (89) 
0

>  <HEAVY_ATOMS>  (89) 
18

>  <QED_WEIGHTED>  (89) 
0.586533743657143

>  <BLOOD_BRAIN_BARRIER_PENETRATION>  (89) 
0.23

>  <BLOOD_BRAIN_BARRIER_PENETRATION_LEVEL>  (89) 
1

>  <HUMAN_INTESTINAL_ABSORPTION_LEVEL>  (89) 
0

>  <AQUEOUS_SOLUBILITY>  (89) 
-3.99

>  <AQUEOUS_SOLUBILITY_LEVEL>  (89) 
3

>  <CYP2D6_BINDING_MODEL>  (89) 
false

>  <HEPATOTOXICITY_MODEL>  (89) 
true

>  <PLASMA_PROTEIN_BINDING_MODEL>  (89) 
true

>  <SMILES>  (89) 
[C@]12(O[C@]13C[C@@H](Cl)[C@@]2(O)C)CC(C)(C)C[C@@H]3C(C)C

>  <STANDARD_INCHI>  (89) 
InChI=1S/C15H25ClO2/c1-9(2)10-6-12(3,4)8-15-13(5,17)11(16)7-14(10,15)18-15/h9-11,17H,6-8H2,1-5H3/t10-,11-,13+,14+,15+/m1/s1

>  <STANDARD_INCHI_KEY>  (89) 
ZXBCSPUAOMNNKQ-MFHWUAJNSA-N

$$$$

     RDKit          2D

 18 20  0  0  1  0  0  0  0  0999 V2000
    7.0930    6.3219    0.0000 C   0  0  0  0  0  0  0  0  0  0  0  0
    7.1756    5.5233    0.0000 C   0  0  0  0  0  0  0  0  0  0  0  0
    7.7540    5.0000    0.0000 O   0  0  0  0  0  0  0  0  0  0  0  0
    6.5973    6.9553    0.0000 C   0  0  0  0  0  0  0  0  0  0  0  0
    5.7986    6.9278    0.0000 C   0  0  0  0  0  0  0  0  0  0  0  0
    5.7711    7.7264    0.0000 C   0  0  0  0  0  0  0  0  0  0  0  0
    5.0000    7.8366    0.0000 C   0  0  0  0  0  0  0  0  0  0  0  0
    5.5233    8.4700    0.0000 C   0  0  0  0  0  0  0  0  0  0  0  0
    6.5698    7.7540    0.0000 C   0  0  0  0  0  0  0  0  0  0  0  0
    7.0930    8.3323    0.0000 C   0  0  0  0  0  0  0  0  0  0  0  0
    7.8641    8.4700    0.0000 C   0  0  0  0  0  0  0  0  0  0  0  0
    8.5526    8.0844    0.0000 C   0  0  0  0  0  0  0  0  0  0  0  0
    9.1860    8.4975    0.0000 C   0  0  0  0  0  0  0  0  0  0  0  0
    8.8280    7.3409    0.0000 C   0  0  0  0  0  0  0  0  0  0  0  0
    8.5526    6.5973    0.0000 C   0  0  0  0  0  0  0  0  0  0  0  0
    7.8641    6.1842    0.0000 C   0  0  0  0  0  0  0  0  0  0  0  0
    7.6713    7.3959    0.0000 O   0  0  0  0  0  0  0  0  0  0  0  0
    9.6267    7.3133    0.0000 O   0  0  0  0  0  0  0  0  0  0  0  0
  1  2  1  6
  1  4  1  0
  1 16  1  0
  1 17  1  0
  2  3  1  0
  4  5  1  1
  4  9  1  0
  5  6  1  0
  6  7  1  0
  6  8  1  0
  6  9  1  0
  9 10  1  6
 10 11  1  0
 11 12  1  0
 12 13  1  0
 12 14  1  0
 12 17  1  0
 14 15  1  0
 14 18  1  6
 15 16  1  0
M  END
>  <COMPOUND_ID>  (90) 
CMNPD19333

>  <MOLECULAR_FORMULA>  (90) 
C15H26O3

>  <MOLECULAR_WEIGHT>  (90) 
254.36999999999995

>  <MOLECULAR_MASS>  (90) 
254.188194692

>  <ALOGP>  (90) 
2.1036000000000006

>  <ROTATABLE_BONDS>  (90) 
1

>  <HBA>  (90) 
3

>  <HBD>  (90) 
2

>  <POLAR_SURFACE_AREA>  (90) 
49.69

>  <AROMATIC_RINGS>  (90) 
0

>  <HEAVY_ATOMS>  (90) 
18

>  <QED_WEIGHTED>  (90) 
0.7532016981946703

>  <BLOOD_BRAIN_BARRIER_PENETRATION>  (90) 
-0.456

>  <BLOOD_BRAIN_BARRIER_PENETRATION_LEVEL>  (90) 
2

>  <HUMAN_INTESTINAL_ABSORPTION_LEVEL>  (90) 
0

>  <AQUEOUS_SOLUBILITY>  (90) 
-2.352

>  <AQUEOUS_SOLUBILITY_LEVEL>  (90) 
3

>  <CYP2D6_BINDING_MODEL>  (90) 
false

>  <HEPATOTOXICITY_MODEL>  (90) 
false

>  <PLASMA_PROTEIN_BINDING_MODEL>  (90) 
false

>  <SMILES>  (90) 
[C@@]12(O[C@@]([C@H](O)CC1)(C)CC[C@@]([H])(C(C)(C)C3)[C@@]23[H])CO

>  <STANDARD_INCHI>  (90) 
InChI=1S/C15H26O3/c1-13(2)8-11-10(13)4-6-14(3)12(17)5-7-15(11,9-16)18-14/h10-12,16-17H,4-9H2,1-3H3/t10-,11+,12-,14?,15-/m1/s1

>  <STANDARD_INCHI_KEY>  (90) 
HDEDHTVUKLACPT-YUFQSFLASA-N

$$$$

     RDKit          2D

 23 24  0  0  1  0  0  0  0  0999 V2000
   10.9753    8.0290    0.0000 C   0  0  0  0  0  0  0  0  0  0  0  0
   11.7739    7.8087    0.0000 C   0  0  0  0  0  0  0  0  0  0  0  0
   11.9942    7.0101    0.0000 Br  0  0  0  0  0  0  0  0  0  0  0  0
    8.8275    5.8261    0.0000 C   0  0  0  0  0  0  0  0  0  0  0  0
    9.5985    6.1290    0.0000 C   0  0  0  0  0  0  0  0  0  0  0  0
   10.1768    5.5507    0.0000 C   0  0  0  0  0  0  0  0  0  0  0  0
    8.0841    6.1290    0.0000 C   0  0  0  0  0  0  0  0  0  0  0  0
    7.2855    5.8261    0.0000 C   0  0  0  0  0  0  0  0  0  0  0  0
    6.5420    6.1290    0.0000 C   0  0  0  0  0  0  0  0  0  0  0  0
    6.2391    6.9000    0.0000 C   0  0  0  0  0  0  0  0  0  0  0  0
    6.5420    7.6710    0.0000 C   0  0  0  0  0  0  0  0  0  0  0  0
    7.3130    7.9739    0.0000 C   0  0  0  0  0  0  0  0  0  0  0  0
    7.3130    8.8000    0.0000 Cl  0  0  0  0  0  0  0  0  0  0  0  0
    8.0565    7.6710    0.0000 C   0  0  0  0  0  0  0  0  0  0  0  0
    8.8275    7.9739    0.0000 C   0  0  0  0  0  0  0  0  0  0  0  0
    9.5985    7.6710    0.0000 C   0  0  0  0  0  0  0  0  0  0  0  0
   10.1768    8.2493    0.0000 C   0  0  0  0  0  0  0  0  0  0  0  0
    8.3869    6.9000    0.0000 O   0  0  0  0  0  0  0  0  0  0  0  0
    9.9014    6.9000    0.0000 O   0  0  0  0  0  0  0  0  0  0  0  0
    5.4130    6.9000    0.0000 O   0  0  0  0  0  0  0  0  0  0  0  0
    5.9638    5.5507    0.0000 Br  0  0  0  0  0  0  0  0  0  0  0  0
    8.8275    5.0000    0.0000 O   0  0  0  0  0  0  0  0  0  0  0  0
    5.0000    6.1841    0.0000 C   0  0  0  0  0  0  0  0  0  0  0  0
  1  2  2  0
  1 17  2  0
  2  3  1  0
  4  5  1  0
  4  7  1  0
  4 22  1  6
  5  6  1  1
  5 19  1  0
  7  8  1  1
  7 18  1  0
  8  9  1  0
  9 10  1  0
  9 21  1  6
 10 11  1  0
 10 20  1  6
 11 12  1  0
 12 13  1  1
 12 14  1  0
 14 15  1  1
 14 18  1  0
 15 16  1  0
 16 17  1  1
 16 19  1  0
 20 23  1  0
M  END
>  <COMPOUND_ID>  (91) 
CMNPD21123

>  <MOLECULAR_FORMULA>  (91) 
C16H23Br2ClO4

>  <MOLECULAR_WEIGHT>  (91) 
474.6170000000002

>  <MOLECULAR_MASS>  (91) 
471.96516109599986

>  <ALOGP>  (91) 
3.5219000000000023

>  <ROTATABLE_BONDS>  (91) 
2

>  <HBA>  (91) 
4

>  <HBD>  (91) 
1

>  <POLAR_SURFACE_AREA>  (91) 
47.92

>  <AROMATIC_RINGS>  (91) 
0

>  <HEAVY_ATOMS>  (91) 
23

>  <QED_WEIGHTED>  (91) 
0.4915576418336496

>  <BLOOD_BRAIN_BARRIER_PENETRATION>  (91) 
-0.234

>  <BLOOD_BRAIN_BARRIER_PENETRATION_LEVEL>  (91) 
2

>  <HUMAN_INTESTINAL_ABSORPTION_LEVEL>  (91) 
0

>  <AQUEOUS_SOLUBILITY>  (91) 
-3.427

>  <AQUEOUS_SOLUBILITY_LEVEL>  (91) 
3

>  <CYP2D6_BINDING_MODEL>  (91) 
false

>  <HEPATOTOXICITY_MODEL>  (91) 
true

>  <PLASMA_PROTEIN_BINDING_MODEL>  (91) 
true

>  <SMILES>  (91) 
C(=C[C@@H](O[C@H]1C)C[C@@H](O[C@H]2[C@H]1O)[C@H](Cl)C[C@@H](OC)[C@@H](Br)C2)=CBr

>  <STANDARD_INCHI>  (91) 
InChI=1S/C16H23Br2ClO4/c1-9-16(20)15-7-11(18)13(21-2)8-12(19)14(23-15)6-10(22-9)4-3-5-17/h4-5,9-16,20H,6-8H2,1-2H3/t3-,9-,10+,11-,12+,13+,14+,15+,16-/m0/s1

>  <STANDARD_INCHI_KEY>  (91) 
BWMXTENBOUZINM-XSOLQRAZSA-N

$$$$

     RDKit          2D

 14 15  0  0  1  0  0  0  0  0999 V2000
    7.7539    7.5060    0.0000 C   0  0  0  0  0  0  0  0  0  0  0  0
    7.4234    8.2771    0.0000 C   0  0  0  0  0  0  0  0  0  0  0  0
    6.5973    8.1670    0.0000 O   0  0  0  0  0  0  0  0  0  0  0  0
    7.8365    8.9656    0.0000 O   0  0  0  0  0  0  0  0  0  0  0  0
    7.1480    6.9553    0.0000 C   0  0  0  0  0  0  0  0  0  0  0  0
    7.1480    6.1291    0.0000 C   0  0  0  0  0  0  0  0  0  0  0  0
    6.4320    5.7160    0.0000 C   0  0  0  0  0  0  0  0  0  0  0  0
    6.8451    5.0000    0.0000 C   0  0  0  0  0  0  0  0  0  0  0  0
    7.8641    5.7160    0.0000 Cl  0  0  0  0  0  0  0  0  0  0  0  0
    5.7160    6.1291    0.0000 C   0  0  0  0  0  0  0  0  0  0  0  0
    6.0189    5.0000    0.0000 C   0  0  0  0  0  0  0  0  0  0  0  0
    5.0000    5.7160    0.0000 Br  0  0  0  0  0  0  0  0  0  0  0  0
    5.7160    6.9553    0.0000 C   0  0  0  0  0  0  0  0  0  0  0  0
    6.4320    7.3684    0.0000 C   0  0  0  0  0  0  0  0  0  0  0  0
  1  2  1  0
  2  3  1  0
  2  4  2  0
 14  3  1  0
  5  6  1  0
  5 14  1  0
  6  7  1  0
  6  9  1  6
  7  8  1  0
  7 10  1  0
  7 11  1  0
 10 12  1  1
 10 13  1  0
 14 13  1  1
  5  1  2  0
M  END
>  <COMPOUND_ID>  (92) 
CMNPD673

>  <MOLECULAR_FORMULA>  (92) 
C10H12BrClO2

>  <MOLECULAR_WEIGHT>  (92) 
279.56100000000004

>  <MOLECULAR_MASS>  (92) 
277.970919404

>  <ALOGP>  (92) 
2.639000000000001

>  <ROTATABLE_BONDS>  (92) 
0

>  <HBA>  (92) 
2

>  <HBD>  (92) 
0

>  <POLAR_SURFACE_AREA>  (92) 
26.3

>  <AROMATIC_RINGS>  (92) 
0

>  <HEAVY_ATOMS>  (92) 
14

>  <QED_WEIGHTED>  (92) 
0.5032351997569218

>  <BLOOD_BRAIN_BARRIER_PENETRATION>  (92) 
0.247

>  <BLOOD_BRAIN_BARRIER_PENETRATION_LEVEL>  (92) 
1

>  <HUMAN_INTESTINAL_ABSORPTION_LEVEL>  (92) 
0

>  <AQUEOUS_SOLUBILITY>  (92) 
-3.835

>  <AQUEOUS_SOLUBILITY_LEVEL>  (92) 
3

>  <CYP2D6_BINDING_MODEL>  (92) 
false

>  <HEPATOTOXICITY_MODEL>  (92) 
true

>  <PLASMA_PROTEIN_BINDING_MODEL>  (92) 
true

>  <SMILES>  (92) 
C1=C2[C@@H](C[C@H](Br)C(C)(C)[C@H]2Cl)OC1=O

>  <STANDARD_INCHI>  (92) 
InChI=1S/C10H12BrClO2/c1-10(2)7(11)4-6-5(9(10)12)3-8(13)14-6/h3,6-7,9H,4H2,1-2H3/t6-,7+,9+/m1/s1

>  <STANDARD_INCHI_KEY>  (92) 
PBIVMDBQFLBXGD-FJXKBIBVSA-N

$$$$

     RDKit          2D

 15 15  0  0  1  0  0  0  0  0999 V2000
    7.1486    6.1294    0.0000 C   0  0  0  0  0  0  0  0  0  0  0  0
    7.8648    5.7162    0.0000 C   0  0  0  0  0  0  0  0  0  0  0  0
    7.4516    5.0000    0.0000 C   0  0  0  0  0  0  0  0  0  0  0  0
    6.4324    5.7162    0.0000 O   0  0  0  0  0  0  0  0  0  0  0  0
    7.1486    6.9557    0.0000 C   0  0  0  0  0  0  0  0  0  0  0  0
    6.4048    7.3965    0.0000 C   0  0  0  0  0  0  0  0  0  0  0  0
    5.6886    6.9557    0.0000 C   0  0  0  0  0  0  0  0  0  0  0  0
    5.6886    6.1294    0.0000 C   0  0  0  0  0  0  0  0  0  0  0  0
    5.0000    7.3689    0.0000 O   0  0  0  0  0  0  0  0  0  0  0  0
    6.4324    8.1678    0.0000 Br  0  0  0  0  0  0  0  0  0  0  0  0
    8.5534    6.1294    0.0000 C   0  0  0  0  0  0  0  0  0  0  0  0
    9.2971    5.7162    0.0000 C   0  0  0  0  0  0  0  0  0  0  0  0
   10.0133    6.1294    0.0000 Br  0  0  0  0  0  0  0  0  0  0  0  0
    5.0000    6.5426    0.0000 C   0  0  0  0  0  0  0  0  0  0  0  0
    8.2779    5.0000    0.0000 Cl  0  0  0  0  0  0  0  0  0  0  0  0
  1  2  1  0
  1  4  1  0
  1  5  1  1
  2  3  1  1
  2 11  1  0
  2 15  1  0
  4  8  1  0
  5  6  1  0
  6  7  1  0
  6 10  1  1
  7  8  1  0
  7  9  1  0
  7 14  1  6
 11 12  2  0
 12 13  1  0
M  END
>  <COMPOUND_ID>  (93) 
CMNPD9525

>  <MOLECULAR_FORMULA>  (93) 
C10H15Br2ClO2

>  <MOLECULAR_WEIGHT>  (93) 
362.48900000000003

>  <MOLECULAR_MASS>  (93) 
359.91273160000003

>  <ALOGP>  (93) 
3.1959000000000017

>  <ROTATABLE_BONDS>  (93) 
2

>  <HBA>  (93) 
2

>  <HBD>  (93) 
1

>  <POLAR_SURFACE_AREA>  (93) 
29.46

>  <AROMATIC_RINGS>  (93) 
0

>  <HEAVY_ATOMS>  (93) 
15

>  <QED_WEIGHTED>  (93) 
0.7647102546588619

>  <BLOOD_BRAIN_BARRIER_PENETRATION>  (93) 
3.9e-002

>  <BLOOD_BRAIN_BARRIER_PENETRATION_LEVEL>  (93) 
1

>  <HUMAN_INTESTINAL_ABSORPTION_LEVEL>  (93) 
0

>  <AQUEOUS_SOLUBILITY>  (93) 
-2.776

>  <AQUEOUS_SOLUBILITY_LEVEL>  (93) 
3

>  <CYP2D6_BINDING_MODEL>  (93) 
false

>  <HEPATOTOXICITY_MODEL>  (93) 
true

>  <PLASMA_PROTEIN_BINDING_MODEL>  (93) 
true

>  <SMILES>  (93) 
[C@H]1(C[C@H](Br)[C@](C)(O)CO1)[C@@](Cl)(\C=C\Br)C

>  <STANDARD_INCHI>  (93) 
InChI=1S/C10H15Br2ClO2/c1-9(13,3-4-11)8-5-7(12)10(2,14)6-15-8/h3-4,7-8,14H,5-6H2,1-2H3/b4-3+/t7-,8-,9-,10+/m0/s1

>  <STANDARD_INCHI_KEY>  (93) 
XIOPKILEHGQSHY-WBSNBJSJSA-N

$$$$

     RDKit          2D

 19 20  0  0  1  0  0  0  0  0999 V2000
    5.0000    6.2421    0.0000 C   0  0  0  0  0  0  0  0  0  0  0  0
    5.7177    5.8281    0.0000 C   0  0  0  0  0  0  0  0  0  0  0  0
    6.4354    6.2421    0.0000 C   0  0  0  0  0  0  0  0  0  0  0  0
    5.0000    7.0702    0.0000 C   0  0  0  0  0  0  0  0  0  0  0  0
    5.7177    7.4843    0.0000 C   0  0  0  0  0  0  0  0  0  0  0  0
    5.7177    8.2848    0.0000 C   0  0  0  0  0  0  0  0  0  0  0  0
    6.4354    7.0702    0.0000 C   0  0  0  0  0  0  0  0  0  0  0  0
    7.1531    5.8281    0.0000 C   0  0  0  0  0  0  0  0  0  0  0  0
    6.4354    7.8983    0.0000 C   0  0  0  0  0  0  0  0  0  0  0  0
    5.7177    5.0000    0.0000 C   0  0  0  0  0  0  0  0  0  0  0  0
    7.8707    7.0702    0.0000 C   0  0  0  0  0  0  0  0  0  0  0  0
    7.1531    6.6562    0.0000 C   0  0  0  0  0  0  0  0  0  0  0  0
    7.8707    7.8983    0.0000 C   0  0  0  0  0  0  0  0  0  0  0  0
    7.1531    8.2848    0.0000 C   0  0  0  0  0  0  0  0  0  0  0  0
    8.5884    8.2848    0.0000 C   0  0  0  0  0  0  0  0  0  0  0  0
    8.5884    6.6562    0.0000 O   0  0  0  0  0  0  0  0  0  0  0  0
   10.0238    6.6562    0.0000 O   0  0  0  0  0  0  0  0  0  0  0  0
    9.3061    7.0702    0.0000 C   0  0  0  0  0  0  0  0  0  0  0  0
    9.3061    7.8983    0.0000 C   0  0  0  0  0  0  0  0  0  0  0  0
  1  2  1  0
  1  4  1  0
  2  3  1  0
  2 10  1  6
  3  7  1  0
  3  8  2  0
  4  5  1  0
  5  6  2  0
  5  7  1  0
  7  9  1  6
  7 12  1  0
  9 14  1  0
 11 12  1  0
 11 13  1  0
 11 16  1  6
 13 14  2  0
 13 15  1  0
 16 18  1  0
 17 18  2  0
 18 19  1  0
M  END
>  <COMPOUND_ID>  (94) 
CMNPD22374

>  <MOLECULAR_FORMULA>  (94) 
C17H24O2

>  <MOLECULAR_WEIGHT>  (94) 
260.377

>  <MOLECULA